<?xml version="1.0" encoding="UTF-8"?>

<!-- generated on 2026-01-19T09:49:48.293519+01:00 by Eclipse SUMO netedit 1.25.0
-->

<neteditConfiguration xmlns:xsi="http://www.w3.org/2001/XMLSchema-instance" xsi:noNamespaceSchemaLocation="http://sumo.dlr.de/xsd/neteditConfiguration.xsd">

    <input>
        <sumocfg-file value="test1.sumocfg"/>
        <route-files value="test1.rou.xml"/>
        <sumo-net-file value="test1.net.xml"/>
    </input>

    <processing>
        <offset.disable-normalization value="true"/>
    </processing>

    <junctions>
        <no-turnarounds value="true"/>
    </junctions>

    <netedit>
        <new-network value="false"/>
    </netedit>

</neteditConfiguration>
