<?xml version="1.0" encoding="UTF-8"?>

<!-- generated on 2026-01-19T09:49:38.357707+01:00 by Eclipse SUMO netedit 1.25.0
-->

<routes xmlns:xsi="http://www.w3.org/2001/XMLSchema-instance" xsi:noNamespaceSchemaLocation="http://sumo.dlr.de/xsd/routes_file.xsd">
    <!-- Vehicles, persons and containers (sorted by depart) -->
    <flow id="f_0" type="DEFAULT_RAILTYPE" begin="0.00" end="3600.00" period="2" from="E0" to="E1"/>
</routes>
