<?xml version="1.0" encoding="UTF-8"?>

<!-- generated on 2026-01-19T09:49:38.372946+01:00 by Eclipse SUMO sumo 1.25.0
-->

<sumoConfiguration xmlns:xsi="http://www.w3.org/2001/XMLSchema-instance" xsi:noNamespaceSchemaLocation="http://sumo.dlr.de/xsd/sumoConfiguration.xsd">

    <configuration>
        <configuration-file value=""/>
    </configuration>

    <input>
        <net-file value="test1.net.xml"/>
        <route-files value="test1.rou.xml"/>
    </input>

    <gui_only>
        <edgedata-files value=""/>
    </gui_only>

</sumoConfiguration>
