<?xml version="1.0" encoding="UTF-8"?>

<!-- generated on 2026-02-20T14:21:09.981734+01:00 by Eclipse SUMO netconvert 1.25.0
<netconvertConfiguration xmlns:xsi="http://www.w3.org/2001/XMLSchema-instance" xsi:noNamespaceSchemaLocation="http://sumo.dlr.de/xsd/netconvertConfiguration.xsd">

    <input>
        <node-files value="/Users/edo/unifi/opentrack/out/lineData/av_belfioreFXB/sumo.nodes.xml"/>
        <edge-files value="/Users/edo/unifi/opentrack/out/lineData/av_belfioreFXB/sumo.edges.xml"/>
    </input>

    <output>
        <output-file value="/Users/edo/unifi/opentrack/out/lineData/av_belfioreFXB/sumo.net.xml"/>
    </output>

    <junctions>
        <junctions.limit-turn-speed value="-1"/>
    </junctions>

</netconvertConfiguration>
-->

<net version="1.20" junctionCornerDetail="5" xmlns:xsi="http://www.w3.org/2001/XMLSchema-instance" xsi:noNamespaceSchemaLocation="http://sumo.dlr.de/xsd/net_file.xsd">

    <location netOffset="0.00,0.00" convBoundary="0.00,0.00,559244.00,100.00" origBoundary="0.00,0.00,559244.00,100.00" projParameter="!"/>

    <edge id=":10_10_0" function="internal">
        <lane id=":10_10_0_0" index="0" allow="rail" speed="38.89" length="0.10" shape="49716.00,-1.60,0.50 49716.00,-1.60,0.50"/>
    </edge>
    <edge id=":10_11_0" function="internal">
        <lane id=":10_11_0_0" index="0" allow="rail" speed="38.89" length="0.10" shape="49760.00,-1.60,0.44 49760.00,-1.60,0.44"/>
    </edge>
    <edge id=":10_12_0" function="internal">
        <lane id=":10_12_0_0" index="0" allow="rail" speed="38.89" length="0.10" shape="55841.00,-1.60,12.60 55841.00,-1.60,12.60"/>
    </edge>
    <edge id=":10_5_0" function="internal">
        <lane id=":10_5_0_0" index="0" allow="rail" speed="36.11" length="0.10" shape="31960.00,-1.60,20.84 31960.00,-1.60,20.84"/>
    </edge>
    <edge id=":10_6_0" function="internal">
        <lane id=":10_6_0_0" index="0" allow="rail" speed="38.89" length="0.10" shape="36919.00,-1.60,25.80 36919.00,-1.60,25.80"/>
    </edge>
    <edge id=":10_7_0" function="internal">
        <lane id=":10_7_0_0" index="0" allow="rail" speed="38.89" length="0.10" shape="36963.00,-1.60,25.78 36963.00,-1.60,25.78"/>
    </edge>
    <edge id=":10_8_0" function="internal">
        <lane id=":10_8_0_0" index="0" allow="rail" speed="38.89" length="0.10" shape="43679.00,-1.60,15.71 43679.00,-1.60,15.71"/>
    </edge>
    <edge id=":10_9_0" function="internal">
        <lane id=":10_9_0_0" index="0" allow="rail" speed="38.89" length="0.10" shape="43723.00,-1.60,15.49 43723.00,-1.60,15.49"/>
    </edge>
    <edge id=":11_12_0" function="internal">
        <lane id=":11_12_0_0" index="0" allow="rail" speed="38.89" length="0.10" shape="60860.00,-1.60,22.64 60860.00,-1.60,22.64"/>
    </edge>
    <edge id=":11_13_0" function="internal">
        <lane id=":11_13_0_0" index="0" allow="rail" speed="38.89" length="0.10" shape="60864.00,-1.60,22.65 60864.00,-1.60,22.65"/>
    </edge>
    <edge id=":12_13_0" function="internal">
        <lane id=":12_13_0_0" index="0" allow="rail" speed="38.89" length="0.10" shape="64680.00,-1.60,37.92 64680.00,-1.60,37.92"/>
    </edge>
    <edge id=":12_14_0" function="internal">
        <lane id=":12_14_0_0" index="0" allow="rail" speed="38.89" length="0.10" shape="64684.00,-1.60,37.93 64684.00,-1.60,37.93"/>
    </edge>
    <edge id=":12_15_0" function="internal">
        <lane id=":12_15_0_0" index="0" allow="rail" speed="38.89" length="0.10" shape="69479.00,-1.60,37.93 69479.00,-1.60,37.93"/>
    </edge>
    <edge id=":12_16_0" function="internal">
        <lane id=":12_16_0_0" index="0" allow="rail" speed="38.89" length="0.10" shape="69519.00,-1.60,37.79 69519.00,-1.60,37.79"/>
    </edge>
    <edge id=":12_17_0" function="internal">
        <lane id=":12_17_0_0" index="0" allow="rail" speed="38.89" length="0.10" shape="74219.00,-1.60,21.34 74219.00,-1.60,21.34"/>
    </edge>
    <edge id=":13_17_0" function="internal">
        <lane id=":13_17_0_0" index="0" allow="rail" speed="38.89" length="0.10" shape="74220.00,-1.60,21.34 74220.00,-1.60,21.34"/>
    </edge>
    <edge id=":13_18_0" function="internal">
        <lane id=":13_18_0_0" index="0" allow="rail" speed="38.89" length="0.10" shape="77078.00,-1.60,17.05 77078.00,-1.60,17.05"/>
    </edge>
    <edge id=":13_19_0" function="internal">
        <lane id=":13_19_0_0" index="0" allow="rail" speed="38.89" length="0.10" shape="77118.00,-1.60,17.03 77118.00,-1.60,17.03"/>
    </edge>
    <edge id=":13_20_0" function="internal">
        <lane id=":13_20_0_0" index="0" allow="rail" speed="38.89" length="0.10" shape="81552.00,-1.60,25.90 81552.00,-1.60,25.90"/>
    </edge>
    <edge id=":13_21_0" function="internal">
        <lane id=":13_21_0_0" index="0" allow="rail" speed="38.89" length="0.10" shape="87890.00,-1.60,51.25 87890.00,-1.60,51.25"/>
    </edge>
    <edge id=":14_21_0" function="internal">
        <lane id=":14_21_0_0" index="0" allow="rail" speed="38.89" length="0.10" shape="93390.00,-1.60,73.25 93390.00,-1.60,73.25"/>
    </edge>
    <edge id=":14_22_0" function="internal">
        <lane id=":14_22_0_0" index="0" allow="rail" speed="38.89" length="0.10" shape="99856.00,-1.60,79.72 99856.00,-1.60,79.72"/>
    </edge>
    <edge id=":14_23_0" function="internal">
        <lane id=":14_23_0_0" index="0" allow="rail" speed="38.89" length="0.10" shape="99900.00,-1.60,79.72 99900.00,-1.60,79.72"/>
    </edge>
    <edge id=":14_24_0" function="internal">
        <lane id=":14_24_0_0" index="0" allow="rail" speed="38.89" length="0.10" shape="104112.00,-1.60,62.87 104112.00,-1.60,62.87"/>
    </edge>
    <edge id=":14_25_0" function="internal">
        <lane id=":14_25_0_0" index="0" allow="rail" speed="38.89" length="0.10" shape="104303.00,-1.60,61.72 104303.00,-1.60,61.72"/>
    </edge>
    <edge id=":15_25_0" function="internal">
        <lane id=":15_25_0_0" index="0" allow="rail" speed="38.89" length="0.10" shape="104780.00,-1.60,58.86 104780.00,-1.60,58.86"/>
    </edge>
    <edge id=":15_26_0" function="internal">
        <lane id=":15_26_0_0" index="0" allow="rail" speed="38.89" length="0.10" shape="105311.00,-1.60,57.00 105311.00,-1.60,57.00"/>
    </edge>
    <edge id=":15_27_0" function="internal">
        <lane id=":15_27_0_0" index="0" allow="rail" speed="38.89" length="0.10" shape="106310.00,-1.60,56.50 106310.00,-1.60,56.50"/>
    </edge>
    <edge id=":15_28_0" function="internal">
        <lane id=":15_28_0_0" index="0" allow="rail" speed="38.89" length="0.10" shape="108017.00,-1.60,57.36 108017.00,-1.60,57.36"/>
    </edge>
    <edge id=":15_29_0" function="internal">
        <lane id=":15_29_0_0" index="0" allow="rail" speed="38.89" length="0.10" shape="109574.00,-1.60,62.81 109574.00,-1.60,62.81"/>
    </edge>
    <edge id=":15_30_0" function="internal">
        <lane id=":15_30_0_0" index="0" allow="rail" speed="38.89" length="0.10" shape="109633.00,-1.60,63.28 109633.00,-1.60,63.28"/>
    </edge>
    <edge id=":16_30_0" function="internal">
        <lane id=":16_30_0_0" index="0" allow="rail" speed="54.16" length="0.10" shape="114930.00,-1.60,105.65 114930.00,-1.60,105.65"/>
    </edge>
    <edge id=":16_31_0" function="internal">
        <lane id=":16_31_0_0" index="0" allow="rail" speed="69.44" length="0.10" shape="128783.00,-1.60,119.51 128783.00,-1.60,119.51"/>
    </edge>
    <edge id=":16_32_0" function="internal">
        <lane id=":16_32_0_0" index="0" allow="rail" speed="69.44" length="0.10" shape="131323.00,-1.60,104.27 131323.00,-1.60,104.27"/>
    </edge>
    <edge id=":16_33_0" function="internal">
        <lane id=":16_33_0_0" index="0" allow="rail" speed="69.44" length="0.10" shape="133767.00,-1.60,104.27 133767.00,-1.60,104.27"/>
    </edge>
    <edge id=":16_34_0" function="internal">
        <lane id=":16_34_0_0" index="0" allow="rail" speed="69.44" length="0.10" shape="134011.00,-1.60,105.24 134011.00,-1.60,105.24"/>
    </edge>
    <edge id=":17_34_0" function="internal">
        <lane id=":17_34_0_0" index="0" allow="rail" speed="69.44" length="0.10" shape="134470.00,-1.60,107.08 134470.00,-1.60,107.08"/>
    </edge>
    <edge id=":17_35_0" function="internal">
        <lane id=":17_35_0_0" index="0" allow="rail" speed="69.44" length="0.10" shape="135103.00,-1.60,107.40 135103.00,-1.60,107.40"/>
    </edge>
    <edge id=":17_36_0" function="internal">
        <lane id=":17_36_0_0" index="0" allow="rail" speed="69.44" length="0.10" shape="135143.00,-1.60,107.28 135143.00,-1.60,107.28"/>
    </edge>
    <edge id=":17_37_0" function="internal">
        <lane id=":17_37_0_0" index="0" allow="rail" speed="69.44" length="0.10" shape="136766.00,-1.60,106.46 136766.00,-1.60,106.46"/>
    </edge>
    <edge id=":17_38_0" function="internal">
        <lane id=":17_38_0_0" index="0" allow="rail" speed="69.44" length="0.10" shape="137556.00,-1.60,109.23 137556.00,-1.60,109.23"/>
    </edge>
    <edge id=":17_39_0" function="internal">
        <lane id=":17_39_0_0" index="0" allow="rail" speed="69.44" length="0.10" shape="139111.00,-1.60,121.67 139111.00,-1.60,121.67"/>
    </edge>
    <edge id=":18_39_0" function="internal">
        <lane id=":18_39_0_0" index="0" allow="rail" speed="54.16" length="0.10" shape="140300.00,-1.60,131.18 140300.00,-1.60,131.18"/>
    </edge>
    <edge id=":18_40_0" function="internal">
        <lane id=":18_40_0_0" index="0" allow="rail" speed="38.89" length="0.10" shape="140427.00,-1.60,132.20 140427.00,-1.60,132.20"/>
    </edge>
    <edge id=":18_41_0" function="internal">
        <lane id=":18_41_0_0" index="0" allow="rail" speed="38.89" length="0.10" shape="142037.00,-1.60,142.66 142037.00,-1.60,142.66"/>
    </edge>
    <edge id=":18_42_0" function="internal">
        <lane id=":18_42_0_0" index="0" allow="rail" speed="38.89" length="0.10" shape="143333.00,-1.60,147.85 143333.00,-1.60,147.85"/>
    </edge>
    <edge id=":18_43_0" function="internal">
        <lane id=":18_43_0_0" index="0" allow="rail" speed="38.89" length="0.10" shape="146529.00,-1.60,143.05 146529.00,-1.60,143.05"/>
    </edge>
    <edge id=":18_44_0" function="internal">
        <lane id=":18_44_0_0" index="0" allow="rail" speed="38.89" length="0.10" shape="147182.00,-1.60,137.83 147182.00,-1.60,137.83"/>
    </edge>
    <edge id=":18_45_0" function="internal">
        <lane id=":18_45_0_0" index="0" allow="rail" speed="38.89" length="0.10" shape="149380.00,-1.60,129.04 149380.00,-1.60,129.04"/>
    </edge>
    <edge id=":18_46_0" function="internal">
        <lane id=":18_46_0_0" index="0" allow="rail" speed="38.89" length="0.10" shape="149440.00,-1.60,129.10 149440.00,-1.60,129.10"/>
    </edge>
    <edge id=":18_47_0" function="internal">
        <lane id=":18_47_0_0" index="0" allow="rail" speed="38.89" length="0.10" shape="150275.00,-1.60,130.77 150275.00,-1.60,130.77"/>
    </edge>
    <edge id=":18_48_0" function="internal">
        <lane id=":18_48_0_0" index="0" allow="rail" speed="38.89" length="0.10" shape="150953.00,-1.60,129.75 150953.00,-1.60,129.75"/>
    </edge>
    <edge id=":18_49_0" function="internal">
        <lane id=":18_49_0_0" index="0" allow="rail" speed="38.89" length="0.10" shape="152429.00,-1.60,123.11 152429.00,-1.60,123.11"/>
    </edge>
    <edge id=":18_50_0" function="internal">
        <lane id=":18_50_0_0" index="0" allow="rail" speed="38.89" length="0.10" shape="153641.00,-1.60,117.65 153641.00,-1.60,117.65"/>
    </edge>
    <edge id=":19_50_0" function="internal">
        <lane id=":19_50_0_0" index="0" allow="rail" speed="54.16" length="0.10" shape="154270.00,-1.60,114.82 154270.00,-1.60,114.82"/>
    </edge>
    <edge id=":19_51_0" function="internal">
        <lane id=":19_51_0_0" index="0" allow="rail" speed="69.44" length="0.10" shape="154761.00,-1.60,115.07 154761.00,-1.60,115.07"/>
    </edge>
    <edge id=":19_52_0" function="internal">
        <lane id=":19_52_0_0" index="0" allow="rail" speed="69.44" length="0.10" shape="155209.00,-1.60,116.41 155209.00,-1.60,116.41"/>
    </edge>
    <edge id=":20_52_0" function="internal">
        <lane id=":20_52_0_0" index="0" allow="rail" speed="69.44" length="0.10" shape="156000.00,-1.60,118.78 156000.00,-1.60,118.78"/>
    </edge>
    <edge id=":20_54_0" function="internal">
        <lane id=":20_54_0_0" index="0" allow="rail" speed="69.44" length="0.10" shape="157039.00,-1.60,115.67 157039.00,-1.60,115.67"/>
    </edge>
    <edge id=":20_55_0" function="internal">
        <lane id=":20_55_0_0" index="0" allow="rail" speed="69.44" length="0.10" shape="157152.00,-1.60,114.99 157152.00,-1.60,114.99"/>
    </edge>
    <edge id=":20_56_0" function="internal">
        <lane id=":20_56_0_0" index="0" allow="rail" speed="69.44" length="0.10" shape="157688.00,-1.60,113.38 157688.00,-1.60,113.38"/>
    </edge>
    <edge id=":20_57_0" function="internal">
        <lane id=":20_57_0_0" index="0" allow="rail" speed="69.44" length="0.10" shape="159920.00,-1.60,113.38 159920.00,-1.60,113.38"/>
    </edge>
    <edge id=":20_58_0" function="internal">
        <lane id=":20_58_0_0" index="0" allow="rail" speed="69.44" length="0.10" shape="162222.00,-1.60,117.99 162222.00,-1.60,117.99"/>
    </edge>
    <edge id=":20_59_0" function="internal">
        <lane id=":20_59_0_0" index="0" allow="rail" speed="69.44" length="0.10" shape="162862.00,-1.60,120.87 162862.00,-1.60,120.87"/>
    </edge>
    <edge id=":20_60_0" function="internal">
        <lane id=":20_60_0_0" index="0" allow="rail" speed="69.44" length="0.10" shape="166752.00,-1.60,120.87 166752.00,-1.60,120.87"/>
    </edge>
    <edge id=":20_61_0" function="internal">
        <lane id=":20_61_0_0" index="0" allow="rail" speed="69.44" length="0.10" shape="166812.00,-1.60,120.63 166812.00,-1.60,120.63"/>
    </edge>
    <edge id=":20_62_0" function="internal">
        <lane id=":20_62_0_0" index="0" allow="rail" speed="69.44" length="0.10" shape="168209.00,-1.60,123.42 168209.00,-1.60,123.42"/>
    </edge>
    <edge id=":20_63_0" function="internal">
        <lane id=":20_63_0_0" index="0" allow="rail" speed="69.44" length="0.10" shape="168701.00,-1.60,127.36 168701.00,-1.60,127.36"/>
    </edge>
    <edge id=":20_64_0" function="internal">
        <lane id=":20_64_0_0" index="0" allow="rail" speed="69.44" length="0.10" shape="169582.00,-1.60,132.20 169582.00,-1.60,132.20"/>
    </edge>
    <edge id=":20_65_0" function="internal">
        <lane id=":20_65_0_0" index="0" allow="rail" speed="69.44" length="0.10" shape="170541.00,-1.60,135.08 170541.00,-1.60,135.08"/>
    </edge>
    <edge id=":20_66_0" function="internal">
        <lane id=":20_66_0_0" index="0" allow="rail" speed="69.44" length="0.10" shape="171948.00,-1.60,123.82 171948.00,-1.60,123.82"/>
    </edge>
    <edge id=":20_67_0" function="internal">
        <lane id=":20_67_0_0" index="0" allow="rail" speed="69.44" length="0.10" shape="174801.00,-1.60,123.82 174801.00,-1.60,123.82"/>
    </edge>
    <edge id=":20_68_0" function="internal">
        <lane id=":20_68_0_0" index="0" allow="rail" speed="69.44" length="0.10" shape="175802.00,-1.60,122.32 175802.00,-1.60,122.32"/>
    </edge>
    <edge id=":20_69_0" function="internal">
        <lane id=":20_69_0_0" index="0" allow="rail" speed="69.44" length="0.10" shape="178474.00,-1.60,129.00 178474.00,-1.60,129.00"/>
    </edge>
    <edge id=":20_70_0" function="internal">
        <lane id=":20_70_0_0" index="0" allow="rail" speed="69.44" length="0.10" shape="178807.00,-1.60,130.67 178807.00,-1.60,130.67"/>
    </edge>
    <edge id=":20_71_0" function="internal">
        <lane id=":20_71_0_0" index="0" allow="rail" speed="69.44" length="0.10" shape="180482.00,-1.60,134.85 180482.00,-1.60,134.85"/>
    </edge>
    <edge id=":20_72_0" function="internal">
        <lane id=":20_72_0_0" index="0" allow="rail" speed="69.44" length="0.10" shape="181337.00,-1.60,134.85 181337.00,-1.60,134.85"/>
    </edge>
    <edge id=":20_73_0" function="internal">
        <lane id=":20_73_0_0" index="0" allow="rail" speed="69.44" length="0.10" shape="182535.00,-1.60,133.06 182535.00,-1.60,133.06"/>
    </edge>
    <edge id=":20_74_0" function="internal">
        <lane id=":20_74_0_0" index="0" allow="rail" speed="69.44" length="0.10" shape="183660.00,-1.60,129.68 183660.00,-1.60,129.68"/>
    </edge>
    <edge id=":20_75_0" function="internal">
        <lane id=":20_75_0_0" index="0" allow="rail" speed="69.44" length="0.10" shape="184605.00,-1.60,128.26 184605.00,-1.60,128.26"/>
    </edge>
    <edge id=":20_76_0" function="internal">
        <lane id=":20_76_0_0" index="0" allow="rail" speed="69.44" length="0.10" shape="185749.00,-1.60,131.12 185749.00,-1.60,131.12"/>
    </edge>
    <edge id=":20_77_0" function="internal">
        <lane id=":20_77_0_0" index="0" allow="rail" speed="69.44" length="0.10" shape="185909.00,-1.60,131.92 185909.00,-1.60,131.92"/>
    </edge>
    <edge id=":20_78_0" function="internal">
        <lane id=":20_78_0_0" index="0" allow="rail" speed="69.44" length="0.10" shape="186724.00,-1.60,131.92 186724.00,-1.60,131.92"/>
    </edge>
    <edge id=":20_79_0" function="internal">
        <lane id=":20_79_0_0" index="0" allow="rail" speed="69.44" length="0.10" shape="187425.00,-1.60,129.82 187425.00,-1.60,129.82"/>
    </edge>
    <edge id=":20_80_0" function="internal">
        <lane id=":20_80_0_0" index="0" allow="rail" speed="69.44" length="0.10" shape="187485.00,-1.60,129.46 187485.00,-1.60,129.46"/>
    </edge>
    <edge id=":20_81_0" function="internal">
        <lane id=":20_81_0_0" index="0" allow="rail" speed="69.44" length="0.10" shape="188476.00,-1.60,125.99 188476.00,-1.60,125.99"/>
    </edge>
    <edge id=":20_82_0" function="internal">
        <lane id=":20_82_0_0" index="0" allow="rail" speed="69.44" length="0.10" shape="188593.00,-1.60,125.93 188593.00,-1.60,125.93"/>
    </edge>
    <edge id=":21_82_0" function="internal">
        <lane id=":21_82_0_0" index="0" allow="rail" speed="69.44" length="0.10" shape="189070.00,-1.60,125.70 189070.00,-1.60,125.70"/>
    </edge>
    <edge id=":21_83_0" function="internal">
        <lane id=":21_83_0_0" index="0" allow="rail" speed="69.44" length="0.10" shape="189071.00,-1.60,125.70 189071.00,-1.60,125.70"/>
    </edge>
    <edge id=":21_84_0" function="internal">
        <lane id=":21_84_0_0" index="0" allow="rail" speed="69.44" length="0.10" shape="189688.00,-1.60,125.70 189688.00,-1.60,125.70"/>
    </edge>
    <edge id=":21_85_0" function="internal">
        <lane id=":21_85_0_0" index="0" allow="rail" speed="69.44" length="0.10" shape="196297.00,-1.60,148.83 196297.00,-1.60,148.83"/>
    </edge>
    <edge id=":21_86_0" function="internal">
        <lane id=":21_86_0_0" index="0" allow="rail" speed="69.44" length="0.10" shape="196351.00,-1.60,149.21 196351.00,-1.60,149.21"/>
    </edge>
    <edge id=":21_87_0" function="internal">
        <lane id=":21_87_0_0" index="0" allow="rail" speed="69.44" length="0.10" shape="198933.00,-1.60,158.24 198933.00,-1.60,158.24"/>
    </edge>
    <edge id=":21_88_0" function="internal">
        <lane id=":21_88_0_0" index="0" allow="rail" speed="69.44" length="0.10" shape="198973.00,-1.60,158.24 198973.00,-1.60,158.24"/>
    </edge>
    <edge id=":22_88_0" function="internal">
        <lane id=":22_88_0_0" index="0" allow="rail" speed="69.44" length="0.10" shape="199610.00,-1.60,158.24 199610.00,-1.60,158.24"/>
    </edge>
    <edge id=":22_89_0" function="internal">
        <lane id=":22_89_0_0" index="0" allow="rail" speed="69.44" length="0.10" shape="201491.00,-1.60,152.60 201491.00,-1.60,152.60"/>
    </edge>
    <edge id=":22_90_0" function="internal">
        <lane id=":22_90_0_0" index="0" allow="rail" speed="69.44" length="0.10" shape="202184.00,-1.60,147.75 202184.00,-1.60,147.75"/>
    </edge>
    <edge id=":22_91_0" function="internal">
        <lane id=":22_91_0_0" index="0" allow="rail" speed="69.44" length="0.10" shape="208669.00,-1.60,128.29 208669.00,-1.60,128.29"/>
    </edge>
    <edge id=":22_92_0" function="internal">
        <lane id=":22_92_0_0" index="0" allow="rail" speed="69.44" length="0.10" shape="208732.00,-1.60,128.29 208732.00,-1.60,128.29"/>
    </edge>
    <edge id=":22_93_0" function="internal">
        <lane id=":22_93_0_0" index="0" allow="rail" speed="69.44" length="0.10" shape="209831.00,-1.60,123.90 209831.00,-1.60,123.90"/>
    </edge>
    <edge id=":22_94_0" function="internal">
        <lane id=":22_94_0_0" index="0" allow="rail" speed="69.44" length="0.10" shape="210000.00,-1.60,122.55 210000.00,-1.60,122.55"/>
    </edge>
    <edge id=":22_95_0" function="internal">
        <lane id=":22_95_0_0" index="0" allow="rail" speed="69.44" length="0.10" shape="214766.00,-1.60,84.42 214766.00,-1.60,84.42"/>
    </edge>
    <edge id=":23_100_0" function="internal">
        <lane id=":23_100_0_0" index="0" allow="rail" speed="69.44" length="0.10" shape="230181.00,-1.60,34.45 230181.00,-1.60,34.45"/>
    </edge>
    <edge id=":23_101_0" function="internal">
        <lane id=":23_101_0_0" index="0" allow="rail" speed="69.44" length="0.10" shape="230823.00,-1.60,36.06 230823.00,-1.60,36.06"/>
    </edge>
    <edge id=":23_102_0" function="internal">
        <lane id=":23_102_0_0" index="0" allow="rail" speed="69.44" length="0.10" shape="232558.00,-1.60,36.06 232558.00,-1.60,36.06"/>
    </edge>
    <edge id=":23_103_0" function="internal">
        <lane id=":23_103_0_0" index="0" allow="rail" speed="69.44" length="0.10" shape="233000.00,-1.60,38.27 233000.00,-1.60,38.27"/>
    </edge>
    <edge id=":23_104_0" function="internal">
        <lane id=":23_104_0_0" index="0" allow="rail" speed="69.44" length="0.10" shape="233080.00,-1.60,39.07 233080.00,-1.60,39.07"/>
    </edge>
    <edge id=":23_105_0" function="internal">
        <lane id=":23_105_0_0" index="0" allow="rail" speed="69.44" length="0.10" shape="233468.00,-1.60,41.01 233468.00,-1.60,41.01"/>
    </edge>
    <edge id=":23_106_0" function="internal">
        <lane id=":23_106_0_0" index="0" allow="rail" speed="69.44" length="0.10" shape="234000.00,-1.60,41.01 234000.00,-1.60,41.01"/>
    </edge>
    <edge id=":23_95_0" function="internal">
        <lane id=":23_95_0_0" index="0" allow="rail" speed="69.44" length="0.10" shape="214770.00,-1.60,84.39 214770.00,-1.60,84.39"/>
    </edge>
    <edge id=":23_96_0" function="internal">
        <lane id=":23_96_0_0" index="0" allow="rail" speed="69.44" length="0.10" shape="219654.00,-1.60,55.08 219654.00,-1.60,55.08"/>
    </edge>
    <edge id=":23_97_0" function="internal">
        <lane id=":23_97_0_0" index="0" allow="rail" speed="69.44" length="0.10" shape="221087.00,-1.60,49.35 221087.00,-1.60,49.35"/>
    </edge>
    <edge id=":23_98_0" function="internal">
        <lane id=":23_98_0_0" index="0" allow="rail" speed="69.44" length="0.10" shape="223960.00,-1.60,40.73 223960.00,-1.60,40.73"/>
    </edge>
    <edge id=":23_99_0" function="internal">
        <lane id=":23_99_0_0" index="0" allow="rail" speed="69.44" length="0.10" shape="224020.00,-1.60,40.61 224020.00,-1.60,40.61"/>
    </edge>
    <edge id=":24_106_0" function="internal">
        <lane id=":24_106_0_0" index="0" allow="rail" speed="69.44" length="0.10" shape="234830.00,-1.60,41.01 234830.00,-1.60,41.01"/>
    </edge>
    <edge id=":24_107_0" function="internal">
        <lane id=":24_107_0_0" index="0" allow="rail" speed="69.44" length="0.10" shape="236762.00,-1.60,38.11 236762.00,-1.60,38.11"/>
    </edge>
    <edge id=":24_108_0" function="internal">
        <lane id=":24_108_0_0" index="0" allow="rail" speed="69.44" length="0.10" shape="238449.00,-1.60,38.11 238449.00,-1.60,38.11"/>
    </edge>
    <edge id=":24_109_0" function="internal">
        <lane id=":24_109_0_0" index="0" allow="rail" speed="69.44" length="0.10" shape="239017.00,-1.60,40.38 239017.00,-1.60,40.38"/>
    </edge>
    <edge id=":24_110_0" function="internal">
        <lane id=":24_110_0_0" index="0" allow="rail" speed="69.44" length="0.10" shape="240028.00,-1.60,42.40 240028.00,-1.60,42.40"/>
    </edge>
    <edge id=":25_110_0" function="internal">
        <lane id=":25_110_0_0" index="0" allow="rail" speed="69.44" length="0.10" shape="240470.00,-1.60,43.29 240470.00,-1.60,43.29"/>
    </edge>
    <edge id=":25_111_0" function="internal">
        <lane id=":25_111_0_0" index="0" allow="rail" speed="69.44" length="0.10" shape="242788.00,-1.60,34.01 242788.00,-1.60,34.01"/>
    </edge>
    <edge id=":25_112_0" function="internal">
        <lane id=":25_112_0_0" index="0" allow="rail" speed="69.44" length="0.10" shape="242846.00,-1.60,33.55 242846.00,-1.60,33.55"/>
    </edge>
    <edge id=":26_112_0" function="internal">
        <lane id=":26_112_0_0" index="0" allow="rail" speed="69.44" length="0.10" shape="250000.00,-1.60,-23.68 250000.00,-1.60,-23.68"/>
    </edge>
    <edge id=":27_112_0" function="internal">
        <lane id=":27_112_0_0" index="0" allow="rail" speed="53.47" length="0.10" shape="251140.00,-1.60,-32.80 251140.00,-1.60,-32.80"/>
    </edge>
    <edge id=":28_112_0" function="internal">
        <lane id=":28_112_0_0" index="0" allow="rail" speed="37.50" length="0.10" shape="252470.00,-1.60,-43.44 252470.00,-1.60,-43.44"/>
    </edge>
    <edge id=":28_113_0" function="internal">
        <lane id=":28_113_0_0" index="0" allow="rail" speed="37.50" length="0.10" shape="252475.00,-1.60,-43.49 252475.00,-1.60,-43.49"/>
    </edge>
    <edge id=":29_113_0" function="internal">
        <lane id=":29_113_0_0" index="0" allow="rail" speed="36.80" length="0.10" shape="253300.00,-1.60,-50.91 253300.00,-1.60,-50.91"/>
    </edge>
    <edge id=":30_113_0" function="internal">
        <lane id=":30_113_0_0" index="0" allow="rail" speed="36.11" length="0.10" shape="254000.00,-1.60,-57.21 254000.00,-1.60,-57.21"/>
    </edge>
    <edge id=":30_114_0" function="internal">
        <lane id=":30_114_0_0" index="0" allow="rail" speed="36.11" length="0.10" shape="254004.00,-1.60,-57.23 254004.00,-1.60,-57.23"/>
    </edge>
    <edge id=":30_115_0" function="internal">
        <lane id=":30_115_0_0" index="0" allow="rail" speed="36.11" length="0.10" shape="256294.00,-1.60,-63.53 256294.00,-1.60,-63.53"/>
    </edge>
    <edge id=":31_115_0" function="internal">
        <lane id=":31_115_0_0" index="0" allow="rail" speed="31.95" length="0.10" shape="256320.00,-1.60,-63.60 256320.00,-1.60,-63.60"/>
    </edge>
    <edge id=":31_116_0" function="internal">
        <lane id=":31_116_0_0" index="0" allow="rail" speed="27.78" length="0.10" shape="256774.00,-1.60,-64.50 256774.00,-1.60,-64.50"/>
    </edge>
    <edge id=":31_117_0" function="internal">
        <lane id=":31_117_0_0" index="0" allow="rail" speed="27.78" length="0.10" shape="257556.00,-1.60,-78.26 257556.00,-1.60,-78.26"/>
    </edge>
    <edge id=":31_118_0" function="internal">
        <lane id=":31_118_0_0" index="0" allow="rail" speed="27.78" length="0.10" shape="258443.00,-1.60,-92.81 258443.00,-1.60,-92.81"/>
    </edge>
    <edge id=":31_119_0" function="internal">
        <lane id=":31_119_0_0" index="0" allow="rail" speed="27.78" length="0.10" shape="258896.00,-1.60,-98.81 258896.00,-1.60,-98.81"/>
    </edge>
    <edge id=":31_120_0" function="internal">
        <lane id=":31_120_0_0" index="0" allow="rail" speed="27.78" length="0.10" shape="259306.00,-1.60,-99.33 259306.00,-1.60,-99.33"/>
    </edge>
    <edge id=":32_120_0" function="internal">
        <lane id=":32_120_0_0" index="0" allow="rail" speed="25.00" length="0.10" shape="259606.00,-1.60,-99.71 259606.00,-1.60,-99.71"/>
    </edge>
    <edge id=":32_121_0" function="internal">
        <lane id=":32_121_0_0" index="0" allow="rail" speed="22.22" length="0.10" shape="259956.00,-1.60,-97.32 259956.00,-1.60,-97.32"/>
    </edge>
    <edge id=":32_122_0" function="internal">
        <lane id=":32_122_0_0" index="0" allow="rail" speed="22.22" length="0.10" shape="260271.00,-1.60,-94.17 260271.00,-1.60,-94.17"/>
    </edge>
    <edge id=":33_122_0" function="internal">
        <lane id=":33_122_0_0" index="0" allow="rail" speed="25.00" length="0.10" shape="260295.00,-1.60,-93.93 260295.00,-1.60,-93.93"/>
    </edge>
    <edge id=":34_122_0" function="internal">
        <lane id=":34_122_0_0" index="0" allow="rail" speed="25.70" length="6.58" shape="260569.50,-1.60,-91.19 260576.08,-1.60,-91.12"/>
    </edge>
    <edge id=":34_122_1" function="internal">
        <lane id=":34_122_1_0" index="0" allow="rail" speed="25.70" length="5.95" shape="260569.50,-1.60,-91.19 260570.70,-1.37,-91.18 260571.82,-0.69,-91.17 260572.86,0.46,-91.17 260573.82,2.06,-91.16"/>
    </edge>
    <edge id=":35_122+0_0" function="internal">
        <lane id=":35_122+0_0_0" index="0" allow="rail" speed="15.97" length="0.10" shape="260621.00,-1.60,-90.67 260621.00,-1.60,-90.67"/>
    </edge>
    <edge id=":35_122+1_0" function="internal">
        <lane id=":35_122+1_0_0" index="0" allow="rail" speed="15.97" length="1.78" shape="260621.55,97.52,-90.68 260621.80,97.90,-90.67 260622.13,98.18,-90.66 260622.52,98.34,-90.66 260622.98,98.40,-90.65"/>
    </edge>
    <edge id=":36_122+0_0" function="internal">
        <lane id=":36_122+0_0_0" index="0" allow="rail" speed="8.33" length="0.10" shape="260871.00,-1.60,-88.17 260871.00,-1.60,-88.17"/>
    </edge>
    <edge id=":36_122+1_0" function="internal">
        <lane id=":36_122+1_0_0" index="0" allow="rail" speed="8.33" length="0.10" shape="260871.00,98.40,-88.17 260871.00,98.40,-88.17"/>
    </edge>
    <edge id=":37_122+0_0" function="internal">
        <lane id=":37_122+0_0_0" index="0" allow="rail" speed="18.05" length="0.10" shape="261121.00,-1.60,-85.67 261121.00,-1.60,-85.67"/>
    </edge>
    <edge id=":37_122+1_0" function="internal">
        <lane id=":37_122+1_0_0" index="0" allow="rail" speed="18.05" length="1.78" shape="261119.02,98.40,-85.69 261119.48,98.34,-85.68 261119.87,98.18,-85.68 261120.20,97.90,-85.67 261120.45,97.52,-85.66"/>
    </edge>
    <edge id=":38_122_0" function="internal">