<?xml version="1.0" encoding="UTF-8"?>

<!-- generated on 2026-03-09T20:39:50.407918+01:00 by Eclipse SUMO netconvert 1.25.0
<netconvertConfiguration xmlns:xsi="http://www.w3.org/2001/XMLSchema-instance" xsi:noNamespaceSchemaLocation="http://sumo.dlr.de/xsd/netconvertConfiguration.xsd">

    <input>
        <node-files value="/Users/edo/unifi/opentrack/out/lineData/av_belfioreFXB/sumo.nodes.xml"/>
        <edge-files value="/Users/edo/unifi/opentrack/out/lineData/av_belfioreFXB/sumo.edges.xml"/>
    </input>

    <output>
        <output-file value="/Users/edo/unifi/opentrack/out/lineData/av_belfioreFXB/sumo.net.xml"/>
    </output>

    <junctions>
        <junctions.limit-turn-speed value="-1"/>
    </junctions>

</netconvertConfiguration>
-->

<net version="1.20" junctionCornerDetail="5" xmlns:xsi="http://www.w3.org/2001/XMLSchema-instance" xsi:noNamespaceSchemaLocation="http://sumo.dlr.de/xsd/net_file.xsd">

    <location netOffset="0.00,0.00" convBoundary="0.00,0.00,559244.00,100.00" origBoundary="0.00,0.00,559244.00,100.00" projParameter="!"/>

    <edge id=":10_10_0" function="internal">
        <lane id=":10_10_0_0" index="0" allow="rail" speed="38.89" length="0.10" shape="49716.00,-1.60,-3.21 49716.00,-1.60,-3.21"/>
    </edge>
    <edge id=":10_11_0" function="internal">
        <lane id=":10_11_0_0" index="0" allow="rail" speed="38.89" length="0.10" shape="49760.00,-1.60,-3.32 49760.00,-1.60,-3.32"/>
    </edge>
    <edge id=":10_12_0" function="internal">
        <lane id=":10_12_0_0" index="0" allow="rail" speed="38.89" length="0.10" shape="55841.00,-1.60,-12.44 55841.00,-1.60,-12.44"/>
    </edge>
    <edge id=":10_5_0" function="internal">
        <lane id=":10_5_0_0" index="0" allow="rail" speed="36.11" length="0.10" shape="31960.00,-1.60,10.30 31960.00,-1.60,10.30"/>
    </edge>
    <edge id=":10_6_0" function="internal">
        <lane id=":10_6_0_0" index="0" allow="rail" speed="38.89" length="0.10" shape="36919.00,-1.60,30.14 36919.00,-1.60,30.14"/>
    </edge>
    <edge id=":10_7_0" function="internal">
        <lane id=":10_7_0_0" index="0" allow="rail" speed="38.89" length="0.10" shape="36963.00,-1.60,30.18 36963.00,-1.60,30.18"/>
    </edge>
    <edge id=":10_8_0" function="internal">
        <lane id=":10_8_0_0" index="0" allow="rail" speed="38.89" length="0.10" shape="43679.00,-1.60,26.82 43679.00,-1.60,26.82"/>
    </edge>
    <edge id=":10_9_0" function="internal">
        <lane id=":10_9_0_0" index="0" allow="rail" speed="38.89" length="0.10" shape="43723.00,-1.60,26.76 43723.00,-1.60,26.76"/>
    </edge>
    <edge id=":11_12_0" function="internal">
        <lane id=":11_12_0_0" index="0" allow="rail" speed="38.89" length="0.10" shape="60860.00,-1.60,-2.40 60860.00,-1.60,-2.40"/>
    </edge>
    <edge id=":11_13_0" function="internal">
        <lane id=":11_13_0_0" index="0" allow="rail" speed="38.89" length="0.10" shape="60864.00,-1.60,-2.39 60864.00,-1.60,-2.39"/>
    </edge>
    <edge id=":12_13_0" function="internal">
        <lane id=":12_13_0_0" index="0" allow="rail" speed="38.89" length="0.10" shape="64680.00,-1.60,12.87 64680.00,-1.60,12.87"/>
    </edge>
    <edge id=":12_14_0" function="internal">
        <lane id=":12_14_0_0" index="0" allow="rail" speed="38.89" length="0.10" shape="64684.00,-1.60,12.89 64684.00,-1.60,12.89"/>
    </edge>
    <edge id=":12_15_0" function="internal">
        <lane id=":12_15_0_0" index="0" allow="rail" speed="38.89" length="0.10" shape="69479.00,-1.60,29.67 69479.00,-1.60,29.67"/>
    </edge>
    <edge id=":12_16_0" function="internal">
        <lane id=":12_16_0_0" index="0" allow="rail" speed="38.89" length="0.10" shape="69519.00,-1.60,29.67 69519.00,-1.60,29.67"/>
    </edge>
    <edge id=":12_17_0" function="internal">
        <lane id=":12_17_0_0" index="0" allow="rail" speed="38.89" length="0.10" shape="74219.00,-1.60,13.22 74219.00,-1.60,13.22"/>
    </edge>
    <edge id=":13_17_0" function="internal">
        <lane id=":13_17_0_0" index="0" allow="rail" speed="38.89" length="0.10" shape="74220.00,-1.60,13.22 74220.00,-1.60,13.22"/>
    </edge>
    <edge id=":13_18_0" function="internal">
        <lane id=":13_18_0_0" index="0" allow="rail" speed="38.89" length="0.10" shape="77078.00,-1.60,3.21 77078.00,-1.60,3.21"/>
    </edge>
    <edge id=":13_19_0" function="internal">
        <lane id=":13_19_0_0" index="0" allow="rail" speed="38.89" length="0.10" shape="77118.00,-1.60,3.15 77118.00,-1.60,3.15"/>
    </edge>
    <edge id=":13_20_0" function="internal">
        <lane id=":13_20_0_0" index="0" allow="rail" speed="38.89" length="0.10" shape="81552.00,-1.60,0.94 81552.00,-1.60,0.94"/>
    </edge>
    <edge id=":13_21_0" function="internal">
        <lane id=":13_21_0_0" index="0" allow="rail" speed="38.89" length="0.10" shape="87890.00,-1.60,13.61 87890.00,-1.60,13.61"/>
    </edge>
    <edge id=":14_21_0" function="internal">
        <lane id=":14_21_0_0" index="0" allow="rail" speed="38.89" length="0.10" shape="93390.00,-1.60,35.61 93390.00,-1.60,35.61"/>
    </edge>
    <edge id=":14_22_0" function="internal">
        <lane id=":14_22_0_0" index="0" allow="rail" speed="38.89" length="0.10" shape="99856.00,-1.60,61.48 99856.00,-1.60,61.48"/>
    </edge>
    <edge id=":14_23_0" function="internal">
        <lane id=":14_23_0_0" index="0" allow="rail" speed="38.89" length="0.10" shape="99900.00,-1.60,61.52 99900.00,-1.60,61.52"/>
    </edge>
    <edge id=":14_24_0" function="internal">
        <lane id=":14_24_0_0" index="0" allow="rail" speed="38.89" length="0.10" shape="104112.00,-1.60,61.52 104112.00,-1.60,61.52"/>
    </edge>
    <edge id=":14_25_0" function="internal">
        <lane id=":14_25_0_0" index="0" allow="rail" speed="38.89" length="0.10" shape="104303.00,-1.60,60.76 104303.00,-1.60,60.76"/>
    </edge>
    <edge id=":15_25_0" function="internal">
        <lane id=":15_25_0_0" index="0" allow="rail" speed="38.89" length="0.10" shape="104780.00,-1.60,57.89 104780.00,-1.60,57.89"/>
    </edge>
    <edge id=":15_26_0" function="internal">
        <lane id=":15_26_0_0" index="0" allow="rail" speed="38.89" length="0.10" shape="105311.00,-1.60,54.71 105311.00,-1.60,54.71"/>
    </edge>
    <edge id=":15_27_0" function="internal">
        <lane id=":15_27_0_0" index="0" allow="rail" speed="38.89" length="0.10" shape="106310.00,-1.60,51.21 106310.00,-1.60,51.21"/>
    </edge>
    <edge id=":15_28_0" function="internal">
        <lane id=":15_28_0_0" index="0" allow="rail" speed="38.89" length="0.10" shape="108017.00,-1.60,50.36 108017.00,-1.60,50.36"/>
    </edge>
    <edge id=":15_29_0" function="internal">
        <lane id=":15_29_0_0" index="0" allow="rail" speed="38.89" length="0.10" shape="109574.00,-1.60,51.14 109574.00,-1.60,51.14"/>
    </edge>
    <edge id=":15_30_0" function="internal">
        <lane id=":15_30_0_0" index="0" allow="rail" speed="38.89" length="0.10" shape="109633.00,-1.60,51.34 109633.00,-1.60,51.34"/>
    </edge>
    <edge id=":16_30_0" function="internal">
        <lane id=":16_30_0_0" index="0" allow="rail" speed="54.16" length="0.10" shape="114930.00,-1.60,93.72 114930.00,-1.60,93.72"/>
    </edge>
    <edge id=":16_31_0" function="internal">
        <lane id=":16_31_0_0" index="0" allow="rail" speed="69.44" length="0.10" shape="128783.00,-1.60,204.54 128783.00,-1.60,204.54"/>
    </edge>
    <edge id=":16_32_0" function="internal">
        <lane id=":16_32_0_0" index="0" allow="rail" speed="69.44" length="0.10" shape="131323.00,-1.60,207.08 131323.00,-1.60,207.08"/>
    </edge>
    <edge id=":16_33_0" function="internal">
        <lane id=":16_33_0_0" index="0" allow="rail" speed="69.44" length="0.10" shape="133767.00,-1.60,192.42 133767.00,-1.60,192.42"/>
    </edge>
    <edge id=":16_34_0" function="internal">
        <lane id=":16_34_0_0" index="0" allow="rail" speed="69.44" length="0.10" shape="134011.00,-1.60,192.42 134011.00,-1.60,192.42"/>
    </edge>
    <edge id=":17_34_0" function="internal">
        <lane id=":17_34_0_0" index="0" allow="rail" speed="69.44" length="0.10" shape="134470.00,-1.60,194.26 134470.00,-1.60,194.26"/>
    </edge>
    <edge id=":17_35_0" function="internal">
        <lane id=":17_35_0_0" index="0" allow="rail" speed="69.44" length="0.10" shape="135103.00,-1.60,196.79 135103.00,-1.60,196.79"/>
    </edge>
    <edge id=":17_36_0" function="internal">
        <lane id=":17_36_0_0" index="0" allow="rail" speed="69.44" length="0.10" shape="135143.00,-1.60,196.81 135143.00,-1.60,196.81"/>
    </edge>
    <edge id=":17_37_0" function="internal">
        <lane id=":17_37_0_0" index="0" allow="rail" speed="69.44" length="0.10" shape="136766.00,-1.60,191.94 136766.00,-1.60,191.94"/>
    </edge>
    <edge id=":17_38_0" function="internal">
        <lane id=":17_38_0_0" index="0" allow="rail" speed="69.44" length="0.10" shape="137556.00,-1.60,191.54 137556.00,-1.60,191.54"/>
    </edge>
    <edge id=":17_39_0" function="internal">
        <lane id=":17_39_0_0" index="0" allow="rail" speed="69.44" length="0.10" shape="139111.00,-1.60,196.99 139111.00,-1.60,196.99"/>
    </edge>
    <edge id=":18_39_0" function="internal">
        <lane id=":18_39_0_0" index="0" allow="rail" speed="54.16" length="0.10" shape="140300.00,-1.60,206.50 140300.00,-1.60,206.50"/>
    </edge>
    <edge id=":18_40_0" function="internal">
        <lane id=":18_40_0_0" index="0" allow="rail" speed="38.89" length="0.10" shape="140427.00,-1.60,207.51 140427.00,-1.60,207.51"/>
    </edge>
    <edge id=":18_41_0" function="internal">
        <lane id=":18_41_0_0" index="0" allow="rail" speed="38.89" length="0.10" shape="142037.00,-1.60,220.39 142037.00,-1.60,220.39"/>
    </edge>
    <edge id=":18_42_0" function="internal">
        <lane id=":18_42_0_0" index="0" allow="rail" speed="38.89" length="0.10" shape="143333.00,-1.60,228.82 143333.00,-1.60,228.82"/>
    </edge>
    <edge id=":18_43_0" function="internal">
        <lane id=":18_43_0_0" index="0" allow="rail" speed="38.89" length="0.10" shape="146529.00,-1.60,241.60 146529.00,-1.60,241.60"/>
    </edge>
    <edge id=":18_44_0" function="internal">
        <lane id=":18_44_0_0" index="0" allow="rail" speed="38.89" length="0.10" shape="147182.00,-1.60,240.62 147182.00,-1.60,240.62"/>
    </edge>
    <edge id=":18_45_0" function="internal">
        <lane id=":18_45_0_0" index="0" allow="rail" speed="38.89" length="0.10" shape="149380.00,-1.60,223.04 149380.00,-1.60,223.04"/>
    </edge>
    <edge id=":18_46_0" function="internal">
        <lane id=":18_46_0_0" index="0" allow="rail" speed="38.89" length="0.10" shape="149440.00,-1.60,222.80 149440.00,-1.60,222.80"/>
    </edge>
    <edge id=":18_47_0" function="internal">
        <lane id=":18_47_0_0" index="0" allow="rail" speed="38.89" length="0.10" shape="150275.00,-1.60,223.63 150275.00,-1.60,223.63"/>
    </edge>
    <edge id=":18_48_0" function="internal">
        <lane id=":18_48_0_0" index="0" allow="rail" speed="38.89" length="0.10" shape="150953.00,-1.60,224.99 150953.00,-1.60,224.99"/>
    </edge>
    <edge id=":18_49_0" function="internal">
        <lane id=":18_49_0_0" index="0" allow="rail" speed="38.89" length="0.10" shape="152429.00,-1.60,222.78 152429.00,-1.60,222.78"/>
    </edge>
    <edge id=":18_50_0" function="internal">
        <lane id=":18_50_0_0" index="0" allow="rail" speed="38.89" length="0.10" shape="153641.00,-1.60,217.32 153641.00,-1.60,217.32"/>
    </edge>
    <edge id=":19_50_0" function="internal">
        <lane id=":19_50_0_0" index="0" allow="rail" speed="54.16" length="0.10" shape="154270.00,-1.60,214.49 154270.00,-1.60,214.49"/>
    </edge>
    <edge id=":19_51_0" function="internal">
        <lane id=":19_51_0_0" index="0" allow="rail" speed="69.44" length="0.10" shape="154761.00,-1.60,212.28 154761.00,-1.60,212.28"/>
    </edge>
    <edge id=":19_52_0" function="internal">
        <lane id=":19_52_0_0" index="0" allow="rail" speed="69.44" length="0.10" shape="155209.00,-1.60,212.51 155209.00,-1.60,212.51"/>
    </edge>
    <edge id=":20_52_0" function="internal">
        <lane id=":20_52_0_0" index="0" allow="rail" speed="69.44" length="0.10" shape="156000.00,-1.60,214.88 156000.00,-1.60,214.88"/>
    </edge>
    <edge id=":20_54_0" function="internal">
        <lane id=":20_54_0_0" index="0" allow="rail" speed="69.44" length="0.10" shape="157039.00,-1.60,218.00 157039.00,-1.60,218.00"/>
    </edge>
    <edge id=":20_55_0" function="internal">
        <lane id=":20_55_0_0" index="0" allow="rail" speed="69.44" length="0.10" shape="157152.00,-1.60,217.66 157152.00,-1.60,217.66"/>
    </edge>
    <edge id=":20_56_0" function="internal">
        <lane id=":20_56_0_0" index="0" allow="rail" speed="69.44" length="0.10" shape="157688.00,-1.60,214.44 157688.00,-1.60,214.44"/>
    </edge>
    <edge id=":20_57_0" function="internal">
        <lane id=":20_57_0_0" index="0" allow="rail" speed="69.44" length="0.10" shape="159920.00,-1.60,207.74 159920.00,-1.60,207.74"/>
    </edge>
    <edge id=":20_58_0" function="internal">
        <lane id=":20_58_0_0" index="0" allow="rail" speed="69.44" length="0.10" shape="162222.00,-1.60,207.74 162222.00,-1.60,207.74"/>
    </edge>
    <edge id=":20_59_0" function="internal">
        <lane id=":20_59_0_0" index="0" allow="rail" speed="69.44" length="0.10" shape="162862.00,-1.60,209.02 162862.00,-1.60,209.02"/>
    </edge>
    <edge id=":20_60_0" function="internal">
        <lane id=":20_60_0_0" index="0" allow="rail" speed="69.44" length="0.10" shape="166752.00,-1.60,226.53 166752.00,-1.60,226.53"/>
    </edge>
    <edge id=":20_61_0" function="internal">
        <lane id=":20_61_0_0" index="0" allow="rail" speed="69.44" length="0.10" shape="166812.00,-1.60,226.53 166812.00,-1.60,226.53"/>
    </edge>
    <edge id=":20_62_0" function="internal">
        <lane id=":20_62_0_0" index="0" allow="rail" speed="69.44" length="0.10" shape="168209.00,-1.60,220.94 168209.00,-1.60,220.94"/>
    </edge>
    <edge id=":20_63_0" function="internal">
        <lane id=":20_63_0_0" index="0" allow="rail" speed="69.44" length="0.10" shape="168701.00,-1.60,221.93 168701.00,-1.60,221.93"/>
    </edge>
    <edge id=":20_64_0" function="internal">
        <lane id=":20_64_0_0" index="0" allow="rail" speed="69.44" length="0.10" shape="169582.00,-1.60,228.97 169582.00,-1.60,228.97"/>
    </edge>
    <edge id=":20_65_0" function="internal">
        <lane id=":20_65_0_0" index="0" allow="rail" speed="69.44" length="0.10" shape="170541.00,-1.60,234.25 170541.00,-1.60,234.25"/>
    </edge>
    <edge id=":20_66_0" function="internal">
        <lane id=":20_66_0_0" index="0" allow="rail" speed="69.44" length="0.10" shape="171948.00,-1.60,238.47 171948.00,-1.60,238.47"/>
    </edge>
    <edge id=":20_67_0" function="internal">
        <lane id=":20_67_0_0" index="0" allow="rail" speed="69.44" length="0.10" shape="174801.00,-1.60,215.64 174801.00,-1.60,215.64"/>
    </edge>
    <edge id=":20_68_0" function="internal">
        <lane id=":20_68_0_0" index="0" allow="rail" speed="69.44" length="0.10" shape="175802.00,-1.60,215.64 175802.00,-1.60,215.64"/>
    </edge>
    <edge id=":20_69_0" function="internal">
        <lane id=":20_69_0_0" index="0" allow="rail" speed="69.44" length="0.10" shape="178474.00,-1.60,211.64 178474.00,-1.60,211.64"/>
    </edge>
    <edge id=":20_70_0" function="internal">
        <lane id=":20_70_0_0" index="0" allow="rail" speed="69.44" length="0.10" shape="178807.00,-1.60,212.47 178807.00,-1.60,212.47"/>
    </edge>
    <edge id=":20_71_0" function="internal">
        <lane id=":20_71_0_0" index="0" allow="rail" speed="69.44" length="0.10" shape="180482.00,-1.60,220.84 180482.00,-1.60,220.84"/>
    </edge>
    <edge id=":20_72_0" function="internal">
        <lane id=":20_72_0_0" index="0" allow="rail" speed="69.44" length="0.10" shape="181337.00,-1.60,222.98 181337.00,-1.60,222.98"/>
    </edge>
    <edge id=":20_73_0" function="internal">
        <lane id=":20_73_0_0" index="0" allow="rail" speed="69.44" length="0.10" shape="182535.00,-1.60,222.98 182535.00,-1.60,222.98"/>
    </edge>
    <edge id=":20_74_0" function="internal">
        <lane id=":20_74_0_0" index="0" allow="rail" speed="69.44" length="0.10" shape="183660.00,-1.60,221.29 183660.00,-1.60,221.29"/>
    </edge>
    <edge id=":20_75_0" function="internal">
        <lane id=":20_75_0_0" index="0" allow="rail" speed="69.44" length="0.10" shape="184605.00,-1.60,218.46 184605.00,-1.60,218.46"/>
    </edge>
    <edge id=":20_76_0" function="internal">
        <lane id=":20_76_0_0" index="0" allow="rail" speed="69.44" length="0.10" shape="185749.00,-1.60,216.74 185749.00,-1.60,216.74"/>
    </edge>
    <edge id=":20_77_0" function="internal">
        <lane id=":20_77_0_0" index="0" allow="rail" speed="69.44" length="0.10" shape="185909.00,-1.60,217.14 185909.00,-1.60,217.14"/>
    </edge>
    <edge id=":20_78_0" function="internal">
        <lane id=":20_78_0_0" index="0" allow="rail" speed="69.44" length="0.10" shape="186724.00,-1.60,221.22 186724.00,-1.60,221.22"/>
    </edge>
    <edge id=":20_79_0" function="internal">
        <lane id=":20_79_0_0" index="0" allow="rail" speed="69.44" length="0.10" shape="187425.00,-1.60,221.22 187425.00,-1.60,221.22"/>
    </edge>
    <edge id=":20_80_0" function="internal">
        <lane id=":20_80_0_0" index="0" allow="rail" speed="69.44" length="0.10" shape="187485.00,-1.60,221.04 187485.00,-1.60,221.04"/>
    </edge>
    <edge id=":20_81_0" function="internal">
        <lane id=":20_81_0_0" index="0" allow="rail" speed="69.44" length="0.10" shape="188476.00,-1.60,215.09 188476.00,-1.60,215.09"/>
    </edge>
    <edge id=":20_82_0" function="internal">
        <lane id=":20_82_0_0" index="0" allow="rail" speed="69.44" length="0.10" shape="188593.00,-1.60,214.68 188593.00,-1.60,214.68"/>
    </edge>
    <edge id=":21_82_0" function="internal">
        <lane id=":21_82_0_0" index="0" allow="rail" speed="69.44" length="0.10" shape="189070.00,-1.60,214.44 189070.00,-1.60,214.44"/>
    </edge>
    <edge id=":21_83_0" function="internal">
        <lane id=":21_83_0_0" index="0" allow="rail" speed="69.44" length="0.10" shape="189071.00,-1.60,214.44 189071.00,-1.60,214.44"/>
    </edge>
    <edge id=":21_84_0" function="internal">
        <lane id=":21_84_0_0" index="0" allow="rail" speed="69.44" length="0.10" shape="189688.00,-1.60,215.68 189688.00,-1.60,215.68"/>
    </edge>
    <edge id=":21_85_0" function="internal">
        <lane id=":21_85_0_0" index="0" allow="rail" speed="69.44" length="0.10" shape="196297.00,-1.60,215.68 196297.00,-1.60,215.68"/>
    </edge>
    <edge id=":21_86_0" function="internal">
        <lane id=":21_86_0_0" index="0" allow="rail" speed="69.44" length="0.10" shape="196351.00,-1.60,215.87 196351.00,-1.60,215.87"/>
    </edge>
    <edge id=":21_87_0" function="internal">
        <lane id=":21_87_0_0" index="0" allow="rail" speed="69.44" length="0.10" shape="198933.00,-1.60,233.94 198933.00,-1.60,233.94"/>
    </edge>
    <edge id=":21_88_0" function="internal">
        <lane id=":21_88_0_0" index="0" allow="rail" speed="69.44" length="0.10" shape="198973.00,-1.60,234.08 198973.00,-1.60,234.08"/>
    </edge>
    <edge id=":22_88_0" function="internal">
        <lane id=":22_88_0_0" index="0" allow="rail" speed="69.44" length="0.10" shape="199610.00,-1.60,234.08 199610.00,-1.60,234.08"/>
    </edge>
    <edge id=":22_89_0" function="internal">
        <lane id=":22_89_0_0" index="0" allow="rail" speed="69.44" length="0.10" shape="201491.00,-1.60,234.08 201491.00,-1.60,234.08"/>
    </edge>
    <edge id=":22_90_0" function="internal">
        <lane id=":22_90_0_0" index="0" allow="rail" speed="69.44" length="0.10" shape="202184.00,-1.60,232.00 202184.00,-1.60,232.00"/>
    </edge>
    <edge id=":22_91_0" function="internal">
        <lane id=":22_91_0_0" index="0" allow="rail" speed="69.44" length="0.10" shape="208669.00,-1.60,186.61 208669.00,-1.60,186.61"/>
    </edge>
    <edge id=":22_92_0" function="internal">
        <lane id=":22_92_0_0" index="0" allow="rail" speed="69.44" length="0.10" shape="208732.00,-1.60,186.42 208732.00,-1.60,186.42"/>
    </edge>
    <edge id=":22_93_0" function="internal">
        <lane id=":22_93_0_0" index="0" allow="rail" speed="69.44" length="0.10" shape="209831.00,-1.60,186.42 209831.00,-1.60,186.42"/>
    </edge>
    <edge id=":22_94_0" function="internal">
        <lane id=":22_94_0_0" index="0" allow="rail" speed="69.44" length="0.10" shape="210000.00,-1.60,185.74 210000.00,-1.60,185.74"/>
    </edge>
    <edge id=":22_95_0" function="internal">
        <lane id=":22_95_0_0" index="0" allow="rail" speed="69.44" length="0.10" shape="214766.00,-1.60,147.61 214766.00,-1.60,147.61"/>
    </edge>
    <edge id=":23_100_0" function="internal">
        <lane id=":23_100_0_0" index="0" allow="rail" speed="69.44" length="0.10" shape="230181.00,-1.60,75.92 230181.00,-1.60,75.92"/>
    </edge>
    <edge id=":23_101_0" function="internal">
        <lane id=":23_101_0_0" index="0" allow="rail" speed="69.44" length="0.10" shape="230823.00,-1.60,75.28 230823.00,-1.60,75.28"/>
    </edge>
    <edge id=":23_102_0" function="internal">
        <lane id=":23_102_0_0" index="0" allow="rail" speed="69.44" length="0.10" shape="232558.00,-1.60,79.61 232558.00,-1.60,79.61"/>
    </edge>
    <edge id=":23_103_0" function="internal">
        <lane id=":23_103_0_0" index="0" allow="rail" speed="69.44" length="0.10" shape="233000.00,-1.60,79.61 233000.00,-1.60,79.61"/>
    </edge>
    <edge id=":23_104_0" function="internal">
        <lane id=":23_104_0_0" index="0" allow="rail" speed="69.44" length="0.10" shape="233080.00,-1.60,80.01 233080.00,-1.60,80.01"/>
    </edge>
    <edge id=":23_105_0" function="internal">
        <lane id=":23_105_0_0" index="0" allow="rail" speed="69.44" length="0.10" shape="233468.00,-1.60,83.89 233468.00,-1.60,83.89"/>
    </edge>
    <edge id=":23_106_0" function="internal">
        <lane id=":23_106_0_0" index="0" allow="rail" speed="69.44" length="0.10" shape="234000.00,-1.60,86.55 234000.00,-1.60,86.55"/>
    </edge>
    <edge id=":23_95_0" function="internal">
        <lane id=":23_95_0_0" index="0" allow="rail" speed="69.44" length="0.10" shape="214770.00,-1.60,147.58 214770.00,-1.60,147.58"/>
    </edge>
    <edge id=":23_96_0" function="internal">
        <lane id=":23_96_0_0" index="0" allow="rail" speed="69.44" length="0.10" shape="219654.00,-1.60,108.51 219654.00,-1.60,108.51"/>
    </edge>
    <edge id=":23_97_0" function="internal">
        <lane id=":23_97_0_0" index="0" allow="rail" speed="69.44" length="0.10" shape="221087.00,-1.60,99.91 221087.00,-1.60,99.91"/>
    </edge>
    <edge id=":23_98_0" function="internal">
        <lane id=":23_98_0_0" index="0" allow="rail" speed="69.44" length="0.10" shape="223960.00,-1.60,88.42 223960.00,-1.60,88.42"/>
    </edge>
    <edge id=":23_99_0" function="internal">
        <lane id=":23_99_0_0" index="0" allow="rail" speed="69.44" length="0.10" shape="224020.00,-1.60,88.24 224020.00,-1.60,88.24"/>
    </edge>
    <edge id=":24_106_0" function="internal">
        <lane id=":24_106_0_0" index="0" allow="rail" speed="69.44" length="0.10" shape="234830.00,-1.60,86.55 234830.00,-1.60,86.55"/>
    </edge>
    <edge id=":24_107_0" function="internal">
        <lane id=":24_107_0_0" index="0" allow="rail" speed="69.44" length="0.10" shape="236762.00,-1.60,86.55 236762.00,-1.60,86.55"/>
    </edge>
    <edge id=":24_108_0" function="internal">
        <lane id=":24_108_0_0" index="0" allow="rail" speed="69.44" length="0.10" shape="238449.00,-1.60,84.02 238449.00,-1.60,84.02"/>
    </edge>
    <edge id=":24_109_0" function="internal">
        <lane id=":24_109_0_0" index="0" allow="rail" speed="69.44" length="0.10" shape="239017.00,-1.60,84.02 239017.00,-1.60,84.02"/>
    </edge>
    <edge id=":24_110_0" function="internal">
        <lane id=":24_110_0_0" index="0" allow="rail" speed="69.44" length="0.10" shape="240028.00,-1.60,88.07 240028.00,-1.60,88.07"/>
    </edge>
    <edge id=":25_110_0" function="internal">
        <lane id=":25_110_0_0" index="0" allow="rail" speed="69.44" length="0.10" shape="240470.00,-1.60,88.95 240470.00,-1.60,88.95"/>
    </edge>
    <edge id=":25_111_0" function="internal">
        <lane id=":25_111_0_0" index="0" allow="rail" speed="69.44" length="0.10" shape="242788.00,-1.60,93.59 242788.00,-1.60,93.59"/>
    </edge>
    <edge id=":25_112_0" function="internal">
        <lane id=":25_112_0_0" index="0" allow="rail" speed="69.44" length="0.10" shape="242846.00,-1.60,93.35 242846.00,-1.60,93.35"/>
    </edge>
    <edge id=":26_112_0" function="internal">
        <lane id=":26_112_0_0" index="0" allow="rail" speed="69.44" length="0.10" shape="250000.00,-1.60,36.12 250000.00,-1.60,36.12"/>
    </edge>
    <edge id=":27_112_0" function="internal">
        <lane id=":27_112_0_0" index="0" allow="rail" speed="53.47" length="0.10" shape="251140.00,-1.60,27.00 251140.00,-1.60,27.00"/>
    </edge>
    <edge id=":28_112_0" function="internal">
        <lane id=":28_112_0_0" index="0" allow="rail" speed="37.50" length="0.10" shape="252470.00,-1.60,16.36 252470.00,-1.60,16.36"/>
    </edge>
    <edge id=":28_113_0" function="internal">
        <lane id=":28_113_0_0" index="0" allow="rail" speed="37.50" length="0.10" shape="252475.00,-1.60,16.32 252475.00,-1.60,16.32"/>
    </edge>
    <edge id=":29_113_0" function="internal">
        <lane id=":29_113_0_0" index="0" allow="rail" speed="36.80" length="0.10" shape="253300.00,-1.60,8.90 253300.00,-1.60,8.90"/>
    </edge>
    <edge id=":30_113_0" function="internal">
        <lane id=":30_113_0_0" index="0" allow="rail" speed="36.11" length="0.10" shape="254000.00,-1.60,2.60 254000.00,-1.60,2.60"/>
    </edge>
    <edge id=":30_114_0" function="internal">
        <lane id=":30_114_0_0" index="0" allow="rail" speed="36.11" length="0.10" shape="254004.00,-1.60,2.56 254004.00,-1.60,2.56"/>
    </edge>
    <edge id=":30_115_0" function="internal">
        <lane id=":30_115_0_0" index="0" allow="rail" speed="36.11" length="0.10" shape="256294.00,-1.60,-6.60 256294.00,-1.60,-6.60"/>
    </edge>
    <edge id=":31_115_0" function="internal">
        <lane id=":31_115_0_0" index="0" allow="rail" speed="31.95" length="0.10" shape="256320.00,-1.60,-6.67 256320.00,-1.60,-6.67"/>
    </edge>
    <edge id=":31_116_0" function="internal">
        <lane id=":31_116_0_0" index="0" allow="rail" speed="27.78" length="0.10" shape="256774.00,-1.60,-7.92 256774.00,-1.60,-7.92"/>
    </edge>
    <edge id=":31_117_0" function="internal">
        <lane id=":31_117_0_0" index="0" allow="rail" speed="27.78" length="0.10" shape="257556.00,-1.60,-9.47 257556.00,-1.60,-9.47"/>
    </edge>
    <edge id=":31_118_0" function="internal">
        <lane id=":31_118_0_0" index="0" allow="rail" speed="27.78" length="0.10" shape="258443.00,-1.60,-25.08 258443.00,-1.60,-25.08"/>
    </edge>
    <edge id=":31_119_0" function="internal">
        <lane id=":31_119_0_0" index="0" allow="rail" speed="27.78" length="0.10" shape="258896.00,-1.60,-32.51 258896.00,-1.60,-32.51"/>
    </edge>
    <edge id=":31_120_0" function="internal">
        <lane id=":31_120_0_0" index="0" allow="rail" speed="27.78" length="0.10" shape="259306.00,-1.60,-37.94 259306.00,-1.60,-37.94"/>
    </edge>
    <edge id=":32_120_0" function="internal">
        <lane id=":32_120_0_0" index="0" allow="rail" speed="25.00" length="0.10" shape="259606.00,-1.60,-38.32 259606.00,-1.60,-38.32"/>
    </edge>
    <edge id=":32_121_0" function="internal">
        <lane id=":32_121_0_0" index="0" allow="rail" speed="22.22" length="0.10" shape="259956.00,-1.60,-38.76 259956.00,-1.60,-38.76"/>
    </edge>
    <edge id=":32_122_0" function="internal">
        <lane id=":32_122_0_0" index="0" allow="rail" speed="22.22" length="0.10" shape="260271.00,-1.60,-36.61 260271.00,-1.60,-36.61"/>
    </edge>
    <edge id=":33_122_0" function="internal">
        <lane id=":33_122_0_0" index="0" allow="rail" speed="25.00" length="0.10" shape="260295.00,-1.60,-36.37 260295.00,-1.60,-36.37"/>
    </edge>
    <edge id=":34_122_0" function="internal">
        <lane id=":34_122_0_0" index="0" allow="rail" speed="25.70" length="6.58" shape="260569.50,-1.60,-33.62 260576.08,-1.60,-33.56"/>
    </edge>
    <edge id=":34_122_1" function="internal">
        <lane id=":34_122_1_0" index="0" allow="rail" speed="25.70" length="5.95" shape="260569.50,-1.60,-33.62 260570.70,-1.37,-33.62 260571.82,-0.69,-33.61 260572.86,0.46,-33.61 260573.82,2.06,-33.60"/>
    </edge>
    <edge id=":35_122+0_0" function="internal">
        <lane id=":35_122+0_0_0" index="0" allow="rail" speed="15.97" length="0.10" shape="260621.00,-1.60,-33.11 260621.00,-1.60,-33.11"/>
    </edge>
    <edge id=":35_122+1_0" function="internal">
        <lane id=":35_122+1_0_0" index="0" allow="rail" speed="15.97" length="1.78" shape="260621.55,97.52,-33.12 260621.80,97.90,-33.11 260622.13,98.18,-33.10 260622.52,98.34,-33.10 260622.98,98.40,-33.09"/>
    </edge>
    <edge id=":36_122+0_0" function="internal">
        <lane id=":36_122+0_0_0" index="0" allow="rail" speed="8.33" length="0.10" shape="260871.00,-1.60,-30.61 260871.00,-1.60,-30.61"/>
    </edge>
    <edge id=":36_122+1_0" function="internal">
        <lane id=":36_122+1_0_0" index="0" allow="rail" speed="8.33" length="0.10" shape="260871.00,98.40,-30.61 260871.00,98.40,-30.61"/>
    </edge>
    <edge id=":37_122+0_0" function="internal">
        <lane id=":37_122+0_0_0" index="0" allow="rail" speed="18.05" length="0.10" shape="261121.00,-1.60,-28.11 261121.00,-1.60,-28.11"/>
    </edge>
    <edge id=":37_122+1_0" function="internal">
        <lane id=":37_122+1_0_0" index="0" allow="rail" speed="18.05" length="1.78" shape="261119.02,98.40,-28.13 261119.48,98.34,-28.12 261119.87,98.18,-28.12 261120.20,97.90,-28.11 261120.45,97.52,-28.10"/>
    </edge>
    <edge id=":38_122_0" function="internal">