<?xml version="1.0" encoding="UTF-8"?>

<!-- generated on 2026-01-19T18:10:37.745176+01:00 by Eclipse SUMO netedit 1.25.0
-->

<additional xmlns:xsi="http://www.w3.org/2001/XMLSchema-instance" xsi:noNamespaceSchemaLocation="http://sumo.dlr.de/xsd/additional_file.xsd">
    <tlLogic id="J3" programID="0">
        <param key="moving-block" value="true"/>
    </tlLogic>
    <tlLogic id="J4" programID="0">
        <param key="moving-block" value="true"/>
    </tlLogic>
</additional>
