<?xml version="1.0" encoding="UTF-8"?>

<!-- generated on 2026-01-25T11:35:03.942570+01:00 by Eclipse SUMO netedit 1.25.0
-->

<routes xmlns:xsi="http://www.w3.org/2001/XMLSchema-instance" xsi:noNamespaceSchemaLocation="http://sumo.dlr.de/xsd/routes_file.xsd">
    <!-- VTypes -->
    <vType id="t_0" vClass="rail" minGap="0">
        <param key="delayInMean" value="64"/>
        <param key="delayInStd" value="0"/>
        <param key="delayOutMean" value="64"/>
        <param key="delayOutStd" value="0"/>
        <param key="positionReportInterval" value="5000"/>
    </vType>
    <!-- Vehicles, persons and containers (sorted by depart) -->
    <flow id="f_0" type="t_0" begin="0.00" end="3600.00" period="2" from="E0" to="E8"/>
    <flow id="f_1" type="t_0" begin="0.00" end="3600.00" period="2" from="E1" to="E7"/>
</routes>
