<?xml version="1.0" encoding="UTF-8"?>

<!-- generated on 2026-01-19T18:24:27.818223+01:00 by Eclipse SUMO sumo 1.25.0
-->

<sumoConfiguration xmlns:xsi="http://www.w3.org/2001/XMLSchema-instance" xsi:noNamespaceSchemaLocation="http://sumo.dlr.de/xsd/sumoConfiguration.xsd">

    <input>
        <net-file value="test2.net.xml"/>
        <route-files value="test2.rou.xml"/>
        <additional-files value="test2.add.xml"/>
    </input>

    <time>
        <end value="3600"/>
        <step-length value="0.001"/>
    </time>

</sumoConfiguration>
