<?xml version="1.0" encoding="UTF-8"?>
<additional>
  <tlLogic id="2_2+0" programID="0">
    <param key="moving-block" value="true"/>
  </tlLogic>
  <tlLogic id="2_2+1" programID="0">
    <param key="moving-block" value="true"/>
  </tlLogic>
  <tlLogic id="3_2+0" programID="0">
    <param key="moving-block" value="true"/>
  </tlLogic>
  <tlLogic id="3_2+1" programID="0">
    <param key="moving-block" value="true"/>
  </tlLogic>
  <tlLogic id="4_2" programID="0">
    <param key="moving-block" value="true"/>
  </tlLogic>
  <tlLogic id="5_2" programID="0">
    <param key="moving-block" value="true"/>
  </tlLogic>
  <tlLogic id="6_2" programID="0">
    <param key="moving-block" value="true"/>
  </tlLogic>
  <tlLogic id="7_2+0" programID="0">
    <param key="moving-block" value="true"/>
  </tlLogic>
  <tlLogic id="7_2+1" programID="0">
    <param key="moving-block" value="true"/>
  </tlLogic>
  <trainStop id="0+0" name="out Inizio" lane="0_0" startPos="0" endPos="1"/>
  <trainStop id="0+1" name="out Inizio" lane="1_0" startPos="0" endPos="1"/>
  <trainStop id="1+0" name="Fine" lane="10_0" startPos="-5"/>
  <trainStop id="1+1" name="Fine" lane="11_0" startPos="-5"/>
</additional>
