<?xml version="1.0" encoding="UTF-8"?>

<!-- generated on 2026-02-20T14:23:51.545917+01:00 by Eclipse SUMO netconvert 1.25.0
<netconvertConfiguration xmlns:xsi="http://www.w3.org/2001/XMLSchema-instance" xsi:noNamespaceSchemaLocation="http://sumo.dlr.de/xsd/netconvertConfiguration.xsd">

    <input>
        <node-files value="/Users/edo/unifi/opentrack/out/lineData/regionaleFXB/sumo.nodes.xml"/>
        <edge-files value="/Users/edo/unifi/opentrack/out/lineData/regionaleFXB/sumo.edges.xml"/>
    </input>

    <output>
        <output-file value="/Users/edo/unifi/opentrack/out/lineData/regionaleFXB/sumo.net.xml"/>
    </output>

    <junctions>
        <junctions.limit-turn-speed value="-1"/>
    </junctions>

</netconvertConfiguration>
-->

<net version="1.20" junctionCornerDetail="5" xmlns:xsi="http://www.w3.org/2001/XMLSchema-instance" xsi:noNamespaceSchemaLocation="http://sumo.dlr.de/xsd/net_file.xsd">

    <location netOffset="0.00,0.00" convBoundary="0.00,0.00,21227.00,100.00" origBoundary="0.00,0.00,21227.00,100.00" projParameter="!"/>

    <edge id=":10_10_0" function="internal">
        <lane id=":10_10_0_0" index="0" allow="rail" speed="22.22" length="0.10" shape="2454.00,-1.60,-0.35 2454.00,-1.60,-0.35"/>
    </edge>
    <edge id=":10_11_0" function="internal">
        <lane id=":10_11_0_0" index="0" allow="rail" speed="22.22" length="0.10" shape="3127.00,-1.60,5.67 3127.00,-1.60,5.67"/>
    </edge>
    <edge id=":10_8_0" function="internal">
        <lane id=":10_8_0_0" index="0" allow="rail" speed="22.22" length="6.26" shape="2015.24,-1.60,-4.00 2021.50,-1.60,-3.98"/>
    </edge>
    <edge id=":10_8_1" function="internal">
        <lane id=":10_8_1_0" index="0" allow="rail" speed="22.22" length="5.31" shape="2018.03,1.77,-3.99 2018.49,0.30,-3.99 2019.22,-0.76,-3.99 2020.22,-1.39,-3.98 2021.50,-1.60,-3.98"/>
    </edge>
    <edge id=":10_9_0" function="internal">
        <lane id=":10_9_0_0" index="0" allow="rail" speed="22.22" length="0.10" shape="2183.00,-1.60,-3.02 2183.00,-1.60,-3.02"/>
    </edge>
    <edge id=":11_11_0" function="internal">
        <lane id=":11_11_0_0" index="0" allow="rail" speed="19.45" length="0.10" shape="3323.00,-1.60,7.43 3323.00,-1.60,7.43"/>
    </edge>
    <edge id=":11_12_0" function="internal">
        <lane id=":11_12_0_0" index="0" allow="rail" speed="16.67" length="0.10" shape="3356.00,-1.60,7.75 3356.00,-1.60,7.75"/>
    </edge>
    <edge id=":11_13_0" function="internal">
        <lane id=":11_13_0_0" index="0" allow="rail" speed="16.67" length="0.10" shape="3503.00,-1.60,10.03 3503.00,-1.60,10.03"/>
    </edge>
    <edge id=":11_14_0" function="internal">
        <lane id=":11_14_0_0" index="0" allow="rail" speed="16.67" length="0.10" shape="3703.00,-1.60,6.73 3703.00,-1.60,6.73"/>
    </edge>
    <edge id=":11_15_0" function="internal">
        <lane id=":11_15_0_0" index="0" allow="rail" speed="16.67" length="0.10" shape="3833.00,-1.60,4.14 3833.00,-1.60,4.14"/>
    </edge>
    <edge id=":12_15_0" function="internal">
        <lane id=":12_15_0_0" index="0" allow="rail" speed="19.45" length="6.58" shape="3863.50,-1.60,3.53 3870.08,-1.60,3.40"/>
    </edge>
    <edge id=":12_15_1" function="internal">
        <lane id=":12_15_1_0" index="0" allow="rail" speed="19.45" length="5.95" shape="3863.50,-1.60,3.53 3864.70,-1.37,3.52 3865.82,-0.69,3.51 3866.86,0.46,3.49 3867.82,2.06,3.47"/>
    </edge>
    <edge id=":13_15+0_0" function="internal">
        <lane id=":13_15+0_0_0" index="0" allow="rail" speed="15.27" length="0.10" shape="3915.00,-1.60,2.51 3915.00,-1.60,2.51"/>
    </edge>
    <edge id=":13_15+1_0" function="internal">
        <lane id=":13_15+1_0_0" index="0" allow="rail" speed="15.27" length="1.78" shape="3915.55,97.52,2.53 3915.80,97.90,2.52 3916.13,98.18,2.52 3916.52,98.34,2.51 3916.98,98.40,2.51"/>
    </edge>
    <edge id=":13_16+0_0" function="internal">
        <lane id=":13_16+0_0_0" index="0" allow="rail" speed="8.33" length="0.10" shape="4015.00,-1.60,2.41 4015.00,-1.60,2.41"/>
    </edge>
    <edge id=":13_16+1_0" function="internal">
        <lane id=":13_16+1_0_0" index="0" allow="rail" speed="8.33" length="0.10" shape="4015.00,98.40,2.41 4015.00,98.40,2.41"/>
    </edge>
    <edge id=":14_16+0_0" function="internal">
        <lane id=":14_16+0_0_0" index="0" allow="rail" speed="8.33" length="0.10" shape="4165.00,-1.60,2.26 4165.00,-1.60,2.26"/>
    </edge>
    <edge id=":14_16+1_0" function="internal">
        <lane id=":14_16+1_0_0" index="0" allow="rail" speed="8.33" length="0.10" shape="4165.00,98.40,2.26 4165.00,98.40,2.26"/>
    </edge>
    <edge id=":14_18+0_0" function="internal">
        <lane id=":14_18+0_0_0" index="0" allow="rail" speed="8.33" length="0.10" shape="4364.00,-1.60,3.71 4364.00,-1.60,3.71"/>
    </edge>
    <edge id=":14_18+1_0" function="internal">
        <lane id=":14_18+1_0_0" index="0" allow="rail" speed="8.33" length="0.10" shape="4364.00,98.40,3.71 4364.00,98.40,3.71"/>
    </edge>
    <edge id=":15_18+0_0" function="internal">
        <lane id=":15_18+0_0_0" index="0" allow="rail" speed="12.50" length="0.10" shape="4415.00,-1.60,4.08 4415.00,-1.60,4.08"/>
    </edge>
    <edge id=":15_18+1_0" function="internal">
        <lane id=":15_18+1_0_0" index="0" allow="rail" speed="12.50" length="1.78" shape="4413.02,98.40,4.07 4413.48,98.34,4.07 4413.87,98.18,4.08 4414.20,97.90,4.08 4414.45,97.52,4.09"/>
    </edge>
    <edge id=":16_18_0" function="internal">
        <lane id=":16_18_0_0" index="0" allow="rail" speed="16.67" length="6.58" shape="4459.92,-1.60,4.41 4466.50,-1.60,4.45"/>
    </edge>
    <edge id=":16_18_1" function="internal">
        <lane id=":16_18_1_0" index="0" allow="rail" speed="16.67" length="5.95" shape="4462.18,2.06,4.44 4463.14,0.46,4.44 4464.18,-0.69,4.45 4465.30,-1.37,4.45 4466.50,-1.60,4.45"/>
    </edge>
    <edge id=":16_19_0" function="internal">
        <lane id=":16_19_0_0" index="0" allow="rail" speed="16.67" length="0.10" shape="4663.00,-1.60,4.45 4663.00,-1.60,4.45"/>
    </edge>
    <edge id=":17_19_0" function="internal">
        <lane id=":17_19_0_0" index="0" allow="rail" speed="20.84" length="0.10" shape="4955.00,-1.60,4.45 4955.00,-1.60,4.45"/>
    </edge>
    <edge id=":17_21_0" function="internal">
        <lane id=":17_21_0_0" index="0" allow="rail" speed="25.00" length="0.10" shape="5156.00,-1.60,4.77 5156.00,-1.60,4.77"/>
    </edge>
    <edge id=":17_22_0" function="internal">
        <lane id=":17_22_0_0" index="0" allow="rail" speed="25.00" length="0.10" shape="5453.00,-1.60,6.11 5453.00,-1.60,6.11"/>
    </edge>
    <edge id=":17_23_0" function="internal">
        <lane id=":17_23_0_0" index="0" allow="rail" speed="25.00" length="0.10" shape="5863.00,-1.60,6.93 5863.00,-1.60,6.93"/>
    </edge>
    <edge id=":17_24_0" function="internal">
        <lane id=":17_24_0_0" index="0" allow="rail" speed="25.00" length="0.10" shape="6107.00,-1.60,7.54 6107.00,-1.60,7.54"/>
    </edge>
    <edge id=":18_24_0" function="internal">
        <lane id=":18_24_0_0" index="0" allow="rail" speed="23.61" length="6.58" shape="6133.50,-1.60,7.61 6140.08,-1.60,7.62"/>
    </edge>
    <edge id=":18_24_1" function="internal">
        <lane id=":18_24_1_0" index="0" allow="rail" speed="23.61" length="5.95" shape="6133.50,-1.60,7.61 6134.70,-1.37,7.61 6135.82,-0.69,7.61 6136.86,0.46,7.61 6137.82,2.06,7.61"/>
    </edge>
    <edge id=":19_24+0_0" function="internal">
        <lane id=":19_24+0_0_0" index="0" allow="rail" speed="15.27" length="0.10" shape="6185.00,-1.60,7.73 6185.00,-1.60,7.73"/>
    </edge>
    <edge id=":19_24+1_0" function="internal">
        <lane id=":19_24+1_0_0" index="0" allow="rail" speed="15.27" length="1.78" shape="6185.55,97.52,7.73 6185.80,97.90,7.73 6186.13,98.18,7.73 6186.52,98.34,7.73 6186.98,98.40,7.73"/>
    </edge>
    <edge id=":19_25+0_0" function="internal">
        <lane id=":19_25+0_0_0" index="0" allow="rail" speed="8.33" length="0.10" shape="6375.00,-1.60,7.96 6375.00,-1.60,7.96"/>
    </edge>
    <edge id=":19_25+1_0" function="internal">
        <lane id=":19_25+1_0_0" index="0" allow="rail" speed="8.33" length="0.10" shape="6375.00,98.40,7.96 6375.00,98.40,7.96"/>
    </edge>
    <edge id=":20_25+0_0" function="internal">
        <lane id=":20_25+0_0_0" index="0" allow="rail" speed="8.33" length="0.10" shape="6435.00,-1.60,8.03 6435.00,-1.60,8.03"/>
    </edge>
    <edge id=":20_25+1_0" function="internal">
        <lane id=":20_25+1_0_0" index="0" allow="rail" speed="8.33" length="0.10" shape="6435.00,98.40,8.03 6435.00,98.40,8.03"/>
    </edge>
    <edge id=":20_26+0_0" function="internal">
        <lane id=":20_26+0_0_0" index="0" allow="rail" speed="8.33" length="0.10" shape="6641.00,-1.60,8.90 6641.00,-1.60,8.90"/>
    </edge>
    <edge id=":20_26+1_0" function="internal">
        <lane id=":20_26+1_0_0" index="0" allow="rail" speed="8.33" length="0.10" shape="6641.00,98.40,8.90 6641.00,98.40,8.90"/>
    </edge>
    <edge id=":21_26+0_0" function="internal">
        <lane id=":21_26+0_0_0" index="0" allow="rail" speed="16.66" length="0.10" shape="6685.00,-1.60,9.08 6685.00,-1.60,9.08"/>
    </edge>
    <edge id=":21_26+1_0" function="internal">
        <lane id=":21_26+1_0_0" index="0" allow="rail" speed="16.66" length="1.78" shape="6683.02,98.40,9.07 6683.48,98.34,9.07 6683.87,98.18,9.08 6684.20,97.90,9.08 6684.45,97.52,9.08"/>
    </edge>
    <edge id=":22_26_0" function="internal">
        <lane id=":22_26_0_0" index="0" allow="rail" speed="25.00" length="6.58" shape="6729.92,-1.60,9.27 6736.50,-1.60,9.30"/>
    </edge>
    <edge id=":22_26_1" function="internal">
        <lane id=":22_26_1_0" index="0" allow="rail" speed="25.00" length="5.95" shape="6732.18,2.06,9.28 6733.14,0.46,9.29 6734.18,-0.69,9.29 6735.30,-1.37,9.29 6736.50,-1.60,9.30"/>
    </edge>
    <edge id=":22_27_0" function="internal">
        <lane id=":22_27_0_0" index="0" allow="rail" speed="25.00" length="0.10" shape="6943.00,-1.60,10.35 6943.00,-1.60,10.35"/>
    </edge>
    <edge id=":22_28_0" function="internal">
        <lane id=":22_28_0_0" index="0" allow="rail" speed="25.00" length="0.10" shape="7119.00,-1.60,10.70 7119.00,-1.60,10.70"/>
    </edge>
    <edge id=":22_29_0" function="internal">
        <lane id=":22_29_0_0" index="0" allow="rail" speed="25.00" length="0.10" shape="7470.00,-1.60,11.72 7470.00,-1.60,11.72"/>
    </edge>
    <edge id=":23_29_0" function="internal">
        <lane id=":23_29_0_0" index="0" allow="rail" speed="23.61" length="6.58" shape="7541.50,-1.60,11.93 7548.08,-1.60,11.95"/>
    </edge>
    <edge id=":23_29_1" function="internal">
        <lane id=":23_29_1_0" index="0" allow="rail" speed="23.61" length="5.95" shape="7541.50,-1.60,11.93 7542.70,-1.37,11.93 7543.82,-0.69,11.93 7544.86,0.46,11.93 7545.82,2.06,11.93"/>
    </edge>
    <edge id=":24_29+0_0" function="internal">
        <lane id=":24_29+0_0_0" index="0" allow="rail" speed="15.27" length="0.10" shape="7593.00,-1.60,12.08 7593.00,-1.60,12.08"/>
    </edge>
    <edge id=":24_29+1_0" function="internal">
        <lane id=":24_29+1_0_0" index="0" allow="rail" speed="15.27" length="1.78" shape="7593.55,97.52,12.08 7593.80,97.90,12.08 7594.13,98.18,12.08 7594.52,98.34,12.09 7594.98,98.40,12.09"/>
    </edge>
    <edge id=":24_30+0_0" function="internal">
        <lane id=":24_30+0_0_0" index="0" allow="rail" speed="8.33" length="0.10" shape="7746.00,-1.60,12.75 7746.00,-1.60,12.75"/>
    </edge>
    <edge id=":24_30+1_0" function="internal">
        <lane id=":24_30+1_0_0" index="0" allow="rail" speed="8.33" length="0.10" shape="7746.00,98.40,12.75 7746.00,98.40,12.75"/>
    </edge>
    <edge id=":25_30+0_0" function="internal">
        <lane id=":25_30+0_0_0" index="0" allow="rail" speed="8.33" length="0.10" shape="7843.00,-1.60,13.18 7843.00,-1.60,13.18"/>
    </edge>
    <edge id=":25_30+1_0" function="internal">
        <lane id=":25_30+1_0_0" index="0" allow="rail" speed="8.33" length="0.10" shape="7843.00,98.40,13.18 7843.00,98.40,13.18"/>
    </edge>
    <edge id=":26_30+0_0" function="internal">
        <lane id=":26_30+0_0_0" index="0" allow="rail" speed="16.66" length="0.10" shape="8093.00,-1.60,14.28 8093.00,-1.60,14.28"/>
    </edge>
    <edge id=":26_30+1_0" function="internal">
        <lane id=":26_30+1_0_0" index="0" allow="rail" speed="16.66" length="0.10" shape="8093.00,98.40,14.28 8093.00,98.40,14.28"/>
    </edge>
    <edge id=":26_31+0_0" function="internal">
        <lane id=":26_31+0_0_0" index="0" allow="rail" speed="25.00" length="0.10" shape="8127.00,-1.60,14.48 8127.00,-1.60,14.48"/>
    </edge>
    <edge id=":26_31+1_0" function="internal">
        <lane id=":26_31+1_0_0" index="0" allow="rail" speed="25.00" length="2.29" shape="8124.27,98.40,14.46 8124.88,98.32,14.47 8125.35,98.06,14.47 8125.67,97.64,14.48 8125.85,97.05,14.48"/>
    </edge>
    <edge id=":27_31_0" function="internal">
        <lane id=":27_31_0_0" index="0" allow="rail" speed="25.00" length="6.24" shape="8138.26,-1.60,14.54 8144.50,-1.60,14.58"/>
    </edge>
    <edge id=":27_31_1" function="internal">
        <lane id=":27_31_1_0" index="0" allow="rail" speed="25.00" length="5.25" shape="8141.10,1.73,14.57 8141.51,0.28,14.57 8142.22,-0.77,14.57 8143.21,-1.39,14.57 8144.50,-1.60,14.58"/>
    </edge>
    <edge id=":27_32_0" function="internal">
        <lane id=":27_32_0_0" index="0" allow="rail" speed="25.00" length="0.10" shape="8288.00,-1.60,15.08 8288.00,-1.60,15.08"/>
    </edge>
    <edge id=":27_33_0" function="internal">
        <lane id=":27_33_0_0" index="0" allow="rail" speed="25.00" length="0.10" shape="8603.00,-1.60,16.40 8603.00,-1.60,16.40"/>
    </edge>
    <edge id=":27_34_0" function="internal">
        <lane id=":27_34_0_0" index="0" allow="rail" speed="25.00" length="0.10" shape="8811.00,-1.60,17.73 8811.00,-1.60,17.73"/>
    </edge>
    <edge id=":27_35_0" function="internal">
        <lane id=":27_35_0_0" index="0" allow="rail" speed="25.00" length="0.10" shape="8872.00,-1.60,18.19 8872.00,-1.60,18.19"/>
    </edge>
    <edge id=":28_35_0" function="internal">
        <lane id=":28_35_0_0" index="0" allow="rail" speed="23.61" length="0.35" shape="8927.00,-1.60,18.60 8926.65,-1.60,18.60"/>
    </edge>
    <edge id=":28_36_0" function="internal">
        <lane id=":28_36_0_0" index="0" allow="rail" speed="22.22" length="6.21" shape="8926.85,-1.60,18.60 8933.06,-1.60,18.65"/>
    </edge>
    <edge id=":28_36_1" function="internal">
        <lane id=":28_36_1_0" index="0" allow="rail" speed="22.22" length="5.63" shape="8926.85,-1.60,18.60 8927.90,-1.37,18.60 8928.91,-0.69,18.61 8929.87,0.45,18.61 8930.79,2.05,18.62"/>
    </edge>
    <edge id=":29_36+0_0" function="internal">
        <lane id=":29_36+0_0_0" index="0" allow="rail" speed="15.27" length="0.10" shape="8977.00,-1.60,19.04 8977.00,-1.60,19.04"/>
    </edge>
    <edge id=":29_36+1_0" function="internal">
        <lane id=":29_36+1_0_0" index="0" allow="rail" speed="15.27" length="1.79" shape="8977.56,97.50,19.03 8977.81,97.90,19.03 8978.14,98.18,19.04 8978.53,98.34,19.04 8979.00,98.40,19.04"/>
    </edge>
    <edge id=":29_37+0_0" function="internal">
        <lane id=":29_37+0_0_0" index="0" allow="rail" speed="8.33" length="0.10" shape="9062.00,-1.60,19.14 9062.00,-1.60,19.14"/>
    </edge>
    <edge id=":29_37+1_0" function="internal">
        <lane id=":29_37+1_0_0" index="0" allow="rail" speed="8.33" length="0.10" shape="9062.00,98.40,19.14 9062.00,98.40,19.14"/>
    </edge>
    <edge id=":30_37+0_0" function="internal">
        <lane id=":30_37+0_0_0" index="0" allow="rail" speed="8.33" length="0.10" shape="9227.00,-1.60,19.34 9227.00,-1.60,19.34"/>
    </edge>
    <edge id=":30_37+1_0" function="internal">
        <lane id=":30_37+1_0_0" index="0" allow="rail" speed="8.33" length="0.10" shape="9227.00,98.40,19.34 9227.00,98.40,19.34"/>
    </edge>
    <edge id=":30_38+0_0" function="internal">
        <lane id=":30_38+0_0_0" index="0" allow="rail" speed="8.33" length="0.10" shape="9399.00,-1.60,20.23 9399.00,-1.60,20.23"/>
    </edge>
    <edge id=":30_38+1_0" function="internal">
        <lane id=":30_38+1_0_0" index="0" allow="rail" speed="8.33" length="0.10" shape="9399.00,98.40,20.23 9399.00,98.40,20.23"/>
    </edge>
    <edge id=":31_38+0_0" function="internal">
        <lane id=":31_38+0_0_0" index="0" allow="rail" speed="16.66" length="0.10" shape="9477.00,-1.60,20.64 9477.00,-1.60,20.64"/>
    </edge>
    <edge id=":31_38+1_0" function="internal">
        <lane id=":31_38+1_0_0" index="0" allow="rail" speed="16.66" length="1.78" shape="9475.02,98.40,20.63 9475.48,98.34,20.63 9475.87,98.18,20.64 9476.20,97.90,20.64 9476.45,97.52,20.64"/>
    </edge>
    <edge id=":32_38_0" function="internal">
        <lane id=":32_38_0_0" index="0" allow="rail" speed="25.00" length="6.58" shape="9521.92,-1.60,20.87 9528.50,-1.60,20.91"/>
    </edge>
    <edge id=":32_38_1" function="internal">
        <lane id=":32_38_1_0" index="0" allow="rail" speed="25.00" length="5.95" shape="9524.18,2.06,20.89 9525.14,0.46,20.90 9526.18,-0.69,20.90 9527.30,-1.37,20.90 9528.50,-1.60,20.91"/>
    </edge>
    <edge id=":32_39_0" function="internal">
        <lane id=":32_39_0_0" index="0" allow="rail" speed="25.00" length="0.10" shape="10439.00,-1.60,25.82 10439.00,-1.60,25.82"/>
    </edge>
    <edge id=":32_40_0" function="internal">
        <lane id=":32_40_0_0" index="0" allow="rail" speed="25.00" length="0.10" shape="11022.00,-1.60,28.74 11022.00,-1.60,28.74"/>
    </edge>
    <edge id=":33_40_0" function="internal">
        <lane id=":33_40_0_0" index="0" allow="rail" speed="23.61" length="0.10" shape="11313.00,-1.60,30.19 11313.00,-1.60,30.19"/>
    </edge>
    <edge id=":33_41_0" function="internal">
        <lane id=":33_41_0_0" index="0" allow="rail" speed="22.22" length="6.20" shape="11356.50,-1.60,30.30 11362.70,-1.60,30.31"/>
    </edge>
    <edge id=":33_41_1" function="internal">
        <lane id=":33_41_1_0" index="0" allow="rail" speed="22.22" length="5.07" shape="11356.50,-1.60,30.30 11357.83,-1.40,30.30 11358.81,-0.81,30.30 11359.42,0.19,30.30 11359.68,1.58,30.30"/>
    </edge>
    <edge id=":34_41+0_0" function="internal">
        <lane id=":34_41+0_0_0" index="0" allow="rail" speed="15.27" length="0.10" shape="11363.00,-1.60,30.31 11363.00,-1.60,30.31"/>
    </edge>
    <edge id=":34_41+1_0" function="internal">
        <lane id=":34_41+1_0_0" index="0" allow="rail" speed="15.27" length="2.49" shape="11364.45,96.88,30.31 11364.57,97.54,30.31 11364.88,98.02,30.31 11365.37,98.30,30.32 11366.04,98.40,30.32"/>
    </edge>
    <edge id=":35_41+0_0" function="internal">
        <lane id=":35_41+0_0_0" index="0" allow="rail" speed="8.33" length="0.10" shape="11613.00,-1.60,30.91 11613.00,-1.60,30.91"/>
    </edge>
    <edge id=":35_41+1_0" function="internal">
        <lane id=":35_41+1_0_0" index="0" allow="rail" speed="8.33" length="0.10" shape="11613.00,98.40,30.91 11613.00,98.40,30.91"/>
    </edge>
    <edge id=":35_42+0_0" function="internal">
        <lane id=":35_42+0_0_0" index="0" allow="rail" speed="8.33" length="0.10" shape="11712.00,-1.60,31.50 11712.00,-1.60,31.50"/>
    </edge>
    <edge id=":35_42+1_0" function="internal">
        <lane id=":35_42+1_0_0" index="0" allow="rail" speed="8.33" length="0.10" shape="11712.00,98.40,31.50 11712.00,98.40,31.50"/>
    </edge>
    <edge id=":36_42+0_0" function="internal">
        <lane id=":36_42+0_0_0" index="0" allow="rail" speed="16.66" length="0.10" shape="11863.00,-1.60,32.39 11863.00,-1.60,32.39"/>
    </edge>
    <edge id=":36_42+1_0" function="internal">
        <lane id=":36_42+1_0_0" index="0" allow="rail" speed="16.66" length="1.78" shape="11861.02,98.40,32.38 11861.48,98.34,32.38 11861.87,98.18,32.39 11862.20,97.90,32.39 11862.45,97.52,32.40"/>
    </edge>
    <edge id=":37_42_0" function="internal">
        <lane id=":37_42_0_0" index="0" allow="rail" speed="25.00" length="6.58" shape="11907.92,-1.60,32.65 11914.50,-1.60,32.69"/>
    </edge>
    <edge id=":37_42_1" function="internal">
        <lane id=":37_42_1_0" index="0" allow="rail" speed="25.00" length="5.95" shape="11910.18,2.06,32.67 11911.14,0.46,32.68 11912.18,-0.69,32.68 11913.30,-1.37,32.69 11914.50,-1.60,32.69"/>
    </edge>
    <edge id=":37_43_0" function="internal">
        <lane id=":37_43_0_0" index="0" allow="rail" speed="25.00" length="0.10" shape="11954.00,-1.60,32.92 11954.00,-1.60,32.92"/>
    </edge>
    <edge id=":37_44_0" function="internal">
        <lane id=":37_44_0_0" index="0" allow="rail" speed="25.00" length="0.10" shape="12721.00,-1.60,38.06 12721.00,-1.60,38.06"/>
    </edge>
    <edge id=":38_44_0" function="internal">
        <lane id=":38_44_0_0" index="0" allow="rail" speed="23.61" length="0.10" shape="13167.00,-1.60,41.04 13167.00,-1.60,41.04"/>
    </edge>
    <edge id=":38_45_0" function="internal">
        <lane id=":38_45_0_0" index="0" allow="rail" speed="22.22" length="6.21" shape="13209.50,-1.60,41.20 13215.71,-1.60,41.23"/>
    </edge>
    <edge id=":38_45_1" function="internal">
        <lane id=":38_45_1_0" index="0" allow="rail" speed="22.22" length="5.09" shape="13209.50,-1.60,41.20 13210.83,-1.40,41.21 13211.80,-0.80,41.21 13212.43,0.20,41.21 13212.70,1.59,41.21"/>
    </edge>
    <edge id=":39_45+0_0" function="internal">
        <lane id=":39_45+0_0_0" index="0" allow="rail" speed="15.27" length="0.10" shape="13217.00,-1.60,41.23 13217.00,-1.60,41.23"/>
    </edge>
    <edge id=":39_45+1_0" function="internal">
        <lane id=":39_45+1_0_0" index="0" allow="rail" speed="15.27" length="2.47" shape="13218.42,96.90,41.23 13218.55,97.55,41.23 13218.86,98.02,41.24 13219.35,98.31,41.24 13220.01,98.40,41.24"/>
    </edge>
    <edge id=":3_1+0_0" function="internal">
        <lane id=":3_1+0_0_0" index="0" allow="rail" speed="8.33" length="0.10" shape="250.00,-1.60,-2.25 250.00,-1.60,-2.25"/>
    </edge>
    <edge id=":3_1+1_0" function="internal">
        <lane id=":3_1+1_0_0" index="0" allow="rail" speed="8.33" length="1.78" shape="248.02,98.40,-2.23 248.48,98.34,-2.24 248.87,98.18,-2.25 249.20,97.90,-2.25 249.45,97.52,-2.26"/>
    </edge>
    <edge id=":40_45+0_0" function="internal">
        <lane id=":40_45+0_0_0" index="0" allow="rail" speed="8.33" length="0.10" shape="13467.00,-1.60,42.18 13467.00,-1.60,42.18"/>
    </edge>
    <edge id=":40_45+1_0" function="internal">
        <lane id=":40_45+1_0_0" index="0" allow="rail" speed="8.33" length="0.10" shape="13467.00,98.40,42.18 13467.00,98.40,42.18"/>
    </edge>
    <edge id=":40_46+0_0" function="internal">
        <lane id=":40_46+0_0_0" index="0" allow="rail" speed="8.33" length="0.10" shape="13625.00,-1.60,42.96 13625.00,-1.60,42.96"/>
    </edge>
    <edge id=":40_46+1_0" function="internal">
        <lane id=":40_46+1_0_0" index="0" allow="rail" speed="8.33" length="0.10" shape="13625.00,98.40,42.96 13625.00,98.40,42.96"/>
    </edge>
    <edge id=":41_46+0_0" function="internal">
        <lane id=":41_46+0_0_0" index="0" allow="rail" speed="16.66" length="0.10" shape="13717.00,-1.60,43.41 13717.00,-1.60,43.41"/>
    </edge>
    <edge id=":41_46+1_0" function="internal">
        <lane id=":41_46+1_0_0" index="0" allow="rail" speed="16.66" length="1.78" shape="13715.02,98.40,43.40 13715.48,98.34,43.40 13715.87,98.18,43.41 13716.20,97.90,43.41 13716.45,97.52,43.41"/>
    </edge>
    <edge id=":42_46_0" function="internal">
        <lane id=":42_46_0_0" index="0" allow="rail" speed="25.00" length="6.58" shape="13761.92,-1.60,43.63 13768.50,-1.60,43.66"/>
    </edge>
    <edge id=":42_46_1" function="internal">
        <lane id=":42_46_1_0" index="0" allow="rail" speed="25.00" length="5.95" shape="13764.18,2.06,43.64 13765.14,0.46,43.65 13766.18,-0.69,43.65 13767.30,-1.37,43.66 13768.50,-1.60,43.66"/>
    </edge>
    <edge id=":42_47_0" function="internal">
        <lane id=":42_47_0_0" index="0" allow="rail" speed="25.00" length="0.10" shape="14064.00,-1.60,45.35 14064.00,-1.60,45.35"/>
    </edge>
    <edge id=":42_48_0" function="internal">
        <lane id=":42_48_0_0" index="0" allow="rail" speed="25.00" length="0.10" shape="14510.00,-1.60,47.27 14510.00,-1.60,47.27"/>
    </edge>
    <edge id=":43_48_0" function="internal">
        <lane id=":43_48_0_0" index="0" allow="rail" speed="23.61" length="6.58" shape="14792.50,-1.60,48.48 14799.08,-1.60,48.51"/>
    </edge>
    <edge id=":43_48_1" function="internal">
        <lane id=":43_48_1_0" index="0" allow="rail" speed="23.61" length="5.95" shape="14792.50,-1.60,48.48 14793.70,-1.37,48.49 14794.82,-0.69,48.49 14795.86,0.46,48.49 14796.82,2.06,48.50"/>
    </edge>
    <edge id=":44_48+0_0" function="internal">
        <lane id=":44_48+0_0_0" index="0" allow="rail" speed="15.27" length="0.10" shape="14844.00,-1.60,48.70 14844.00,-1.60,48.70"/>
    </edge>
    <edge id=":44_48+1_0" function="internal">
        <lane id=":44_48+1_0_0" index="0" allow="rail" speed="15.27" length="1.78" shape="14844.55,97.52,48.70 14844.80,97.90,48.70 14845.13,98.18,48.70 14845.52,98.34,48.71 14845.98,98.40,48.71"/>
    </edge>
    <edge id=":45_48+0_0" function="internal">
        <lane id=":45_48+0_0_0" index="0" allow="rail" speed="8.33" length="0.10" shape="15094.00,-1.60,49.78 15094.00,-1.60,49.78"/>
    </edge>
    <edge id=":45_48+1_0" function="internal">
        <lane id=":45_48+1_0_0" index="0" allow="rail" speed="8.33" length="0.10" shape="15094.00,98.40,49.78 15094.00,98.40,49.78"/>
    </edge>
    <edge id=":45_49+0_0" function="internal">
        <lane id=":45_49+0_0_0" index="0" allow="rail" speed="8.33" length="0.10" shape="15282.00,-1.60,51.00 15282.00,-1.60,51.00"/>
    </edge>
    <edge id=":45_49+1_0" function="internal">
        <lane id=":45_49+1_0_0" index="0" allow="rail" speed="8.33" length="0.10" shape="15282.00,98.40,51.00 15282.00,98.40,51.00"/>
    </edge>
    <edge id=":46_49+0_0" function="internal">
        <lane id=":46_49+0_0_0" index="0" allow="rail" speed="16.66" length="0.10" shape="15344.00,-1.60,51.40 15344.00,-1.60,51.40"/>
    </edge>
    <edge id=":46_49+1_0" function="internal">
        <lane id=":46_49+1_0_0" index="0" allow="rail" speed="16.66" length="1.78" shape="15342.02,98.40,51.39 15342.48,98.34,51.39 15342.87,98.18,51.40 15343.20,97.90,51.40 15343.45,97.52,51.41"/>
    </edge>
    <edge id=":47_49_0" function="internal">
        <lane id=":47_49_0_0" index="0" allow="rail" speed="25.00" length="6.58" shape="15388.92,-1.60,51.70 15395.50,-1.60,51.74"/>
    </edge>
    <edge id=":47_49_1" function="internal">
        <lane id=":47_49_1_0" index="0" allow="rail" speed="25.00" length="5.95" shape="15391.18,2.06,51.72 15392.14,0.46,51.73 15393.18,-0.69,51.73 15394.30,-1.37,51.73 15395.50,-1.60,51.74"/>
    </edge>
    <edge id=":47_50_0" function="internal">
        <lane id=":47_50_0_0" index="0" allow="rail" speed="25.00" length="0.10" shape="15827.00,-1.60,53.59 15827.00,-1.60,53.59"/>
    </edge>
    <edge id=":47_51_0" function="internal">
        <lane id=":47_51_0_0" index="0" allow="rail" speed="25.00" length="0.10" shape="16504.00,-1.60,57.45 16504.00,-1.60,57.45"/>
    </edge>
    <edge id=":48_51_0" function="internal">
        <lane id=":48_51_0_0" index="0" allow="rail" speed="23.61" length="6.58" shape="16865.50,-1.60,59.51 16872.08,-1.60,59.55"/>
    </edge>
    <edge id=":48_51_1" function="internal">
        <lane id=":48_51_1_0" index="0" allow="rail" speed="23.61" length="5.95" shape="16865.50,-1.60,59.51 16866.70,-1.37,59.51 16867.82,-0.69,59.52 16868.86,0.46,59.52 16869.82,2.06,59.53"/>
    </edge>
    <edge id=":49_51+0_0" function="internal">
        <lane id=":49_51+0_0_0" index="0" allow="rail" speed="15.27" length="0.10" shape="16917.00,-1.60,59.80 16917.00,-1.60,59.80"/>
    </edge>
    <edge id=":49_51+1_0" function="internal">
        <lane id=":49_51+1_0_0" index="0" allow="rail" speed="15.27" length="1.78" shape="16917.55,97.52,59.80 16917.80,97.90,59.80 16918.13,98.18,59.80 16918.52,98.34,59.80 16918.98,98.40,59.81"/>
    </edge>
    <edge id=":49_52+0_0" function="internal">
        <lane id=":49_52+0_0_0" index="0" allow="rail" speed="8.33" length="0.10" shape="16955.00,-1.60,59.91 16955.00,-1.60,59.91"/>
    </edge>
    <edge id=":49_52+1_0" function="internal">
        <lane id=":49_52+1_0_0" index="0" allow="rail" speed="8.33" length="0.10" shape="16955.00,98.40,59.91 16955.00,98.40,59.91"/>
    </edge>
    <edge id=":4_1_0" function="internal">
        <lane id=":4_1_0_0" index="0" allow="rail" speed="8.33" length="6.58" shape="294.92,-1.60,-2.65 301.50,-1.60,-2.71"/>
    </edge>
    <edge id=":4_1_1" function="internal">
        <lane id=":4_1_1_0" index="0" allow="rail" speed="8.33" length="5.95" shape="297.18,2.06,-2.69 298.14,0.46,-2.70 299.18,-0.69,-2.70 300.30,-1.37,-2.71 301.50,-1.60,-2.71"/>
    </edge>
    <edge id=":50_52+0_0" function="internal">
        <lane id=":50_52+0_0_0" index="0" allow="rail" speed="8.33" length="0.10" shape="17167.00,-1.60,60.54 17167.00,-1.60,60.54"/>
    </edge>
    <edge id=":50_52+1_0" function="internal">
        <lane id=":50_52+1_0_0" index="0" allow="rail" speed="8.33" length="0.10" shape="17167.00,98.40,60.54 17167.00,98.40,60.54"/>
    </edge>
    <edge id=":50_53+0_0" function="internal">
        <lane id=":50_53+0_0_0" index="0" allow="rail" speed="8.33" length="0.10" shape="17282.00,-1.60,61.21 17282.00,-1.60,61.21"/>
    </edge>
    <edge id=":50_53+1_0" function="internal">
        <lane id=":50_53+1_0_0" index="0" allow="rail" speed="8.33" length="0.10" shape="17282.00,98.40,61.21 17282.00,98.40,61.21"/>
    </edge>
    <edge id=":51_53+0_0" function="internal">
        <lane id=":51_53+0_0_0" index="0" allow="rail" speed="16.66" length="0.10" shape="17417.00,-1.60,61.99 17417.00,-1.60,61.99"/>
    </edge>
    <edge id=":51_53+1_0" function="internal">