<?xml version="1.0" encoding="UTF-8"?>
<routes>
    <vType id="etr522" vClass="rail" carFollowModel="RailETCS" length="136.84"
        minGap="0" mass="329422" numSamples="10000"
        maxSpeed="100"
        speedTable="0 0.2777777778 0.5555555556 0.8333333333 1.111111111 1.388888889 1.666666667 1.944444444 2.222222222 2.5 2.777777778 3.055555556 3.333333333 3.611111111 3.888888889 4.166666667 4.444444444 4.722222222 5 5.277777778 5.555555556 5.833333333 6.111111111 6.388888889 6.666666667 6.944444444 7.222222222 7.5 7.777777778 8.055555556 8.333333333 8.611111111 8.888888889 9.166666667 9.444444444 9.722222222 10 10.27777778 10.55555556 10.83333333 11.11111111 11.38888889 11.66666667 11.94444444 12.22222222 12.5 12.77777778 13.05555556 13.33333333 13.61111111 13.88888889 14.16666667 14.44444444 14.72222222 15 15.27777778 15.55555556 15.83333333 16.11111111 16.38888889 16.66666667 16.94444444 17.22222222 17.5 17.77777778 18.05555556 18.33333333 18.61111111 18.88888889 19.16666667 19.44444444 19.72222222 20 20.27777778 20.55555556 20.83333333 21.11111111 21.38888889 21.66666667 21.94444444 22.22222222 22.5 22.77777778 23.05555556 23.33333333 23.61111111 23.88888889 24.16666667 24.44444444 24.72222222 25 25.27777778 25.55555556 25.83333333 26.11111111 26.38888889 26.66666667 26.94444444 27.22222222 27.5 27.77777778 28.05555556 28.33333333 28.61111111 28.88888889 29.16666667 29.44444444 29.72222222 30 30.27777778 30.55555556 30.83333333 31.11111111 31.38888889 31.66666667 31.94444444 32.22222222 32.5 32.77777778 33.05555556 33.33333333 33.61111111 33.88888889 34.16666667 34.44444444 34.72222222 35 35.27777778 35.55555556 35.83333333 36.11111111 36.38888889 36.66666667 36.94444444 37.22222222 37.5 37.77777778 38.05555556 38.33333333 38.61111111 38.88888889 39.16666667 39.44444444 39.72222222 40 40.27777778 40.55555556 40.83333333 41.11111111 41.38888889 41.66666667 41.94444444 42.22222222 42.5 42.77777778 43.05555556 43.33333333 43.61111111 43.88888889 44.16666667 44.44444444"
        tractionTable="410 410 410 410 410 410 410 410 410 410 410 410 410 410 410 410 410 410 410 410 410 410 410 410 410 410 410 410 410 410 409.741 396.6184194 384.316 372.7591818 361.8821765 351.6267143 341.941 332.7788378 324.0988947 315.8640769 308.041 300.5995366 293.5124286 286.7549535 280.3046364 274.141 268.2453478 262.6005745 257.191 252.0022245 247.021 242.2351176 237.6333077 233.2051509 228.941 224.8319091 220.8695714 217.0462632 213.3547931 209.7884576 206.341 203.0065738 199.7797097 196.6552857 193.6285 190.6948462 187.8500909 185.0902537 182.4115882 179.8105652 177.2838571 174.8283239 172.441 170.1190822 167.8599189 165.661 163.5199474 161.4345065 159.4025385 157.4220127 155.491 153.6076667 151.7702683 149.9771446 148.2267143 146.5174706 144.8479767 143.2168621 141.6228182 140.0645955 138.541 137.0508901 135.5931739 134.1668065 132.7707872 131.4041579 130.066 128.755433 127.4716122 126.2137273 124.9992 122.5362219 120.1453287 117.8237346 115.568787 113.3779592 111.248843 109.1791423 107.1666667 105.2093258 103.305124 101.4521549 99.64859694 97.8927089 96.18282548 94.5173535 92.89476813 91.31360947 89.77247917 88.27003743 86.805 85.37613551 83.98226283 82.62224866 81.2950052 79.999488 78.73469388 77.499659 76.29345703 75.1151974 73.96402367 72.83911194 71.73966942 70.66493301 69.61416797 68.58666667 67.5817474 66.59875326 65.63705104 64.69603023 63.77510204 62.87369851 61.99127157 61.12729229 60.28125 59.45265161 58.64102083 57.84589754 57.06683711 56.30340976 55.5552 54.82180606 54.10283934 53.39792388 52.7066959 52.02880333 51.36390533 50.71167187 50.07178337 49.44393022 48.8278125"
        brakingTable="241 241 241 241 241 241 241 241 241 241 241 241 241 241 241 241 241 241 241 241 241 241 241 241 241 241 241 241 241 241 241 241 241 241 241 241 241 241 241 241 241 241 241 241 241 241 241 241 241 241 241 241 241 241 241 241 241 240 235.862069 231.8644068 228 224.2622951 220.6451613 217.1428571 213.75 210.4615385 207.2727273 204.1791045 201.1764706 198.2608696 195.4285714 192.6760563 190 187.3972603 184.8648649 182.4 180 177.6623377 175.3846154 173.164557 171 168.8888889 166.8292683 164.8192771 162.8571429 160.9411765 159.0697674 157.2413793 155.4545455 153.7078652 152 150.3296703 148.6956522 147.0967742 145.5319149 144 142.5 141.0309278 139.5918367 138.1818182 136.8 135.4455446 134.1176471 132.815534 131.5384615 130.2857143 129.0566038 127.8504673 126.6666667 125.5045872 124.3636364 123.2432432 122.1428571 121.0619469 120 118.9565217 117.9310345 116.9230769 115.9322034 114.9579832 114.3 112.4185506 110.5831766 108.7923855 107.0447451 105.33888 103.6734694 102.0472441 100.4589844 98.90751758 97.39171598 95.91049473 94.46280992 93.04765674 91.66406772 90.31111111 88.98788927 87.69353722 86.42722117 85.18813726 83.9755102 82.78859212 81.62666138 80.48902147 79.375 78.28394768 77.21523738 76.16826322 75.14243974 74.13720103 73.152 72.18630762 71.23961219 70.31141869 69.4012481 68.50863684 67.63313609 66.77431133 65.93174171 65.10501958 64.29375"
        resistanceTable="4.843220808 4.843220808 4.845373032 4.848960071 4.853981927 4.860438598 4.868330085 4.877656388 4.888417506 4.900613441 4.914244191 4.929309757 4.945810139 4.963745337 4.983115351 5.00392018 5.026159825 5.049834286 5.074943563 5.101487656 5.129466564 5.158880289 5.189728829 5.222012185 5.255730357 5.290883344 5.327471148 5.365493767 5.404951202 5.445843453 5.48817052 5.531932403 5.577129101 5.623760615 5.671826945 5.721328091 5.772264053 5.82463483 5.878440424 5.933680833 5.990356058 6.048466099 6.108010955 6.168990628 6.231405116 6.29525442 6.36053854 6.427257476 6.495411227 6.564999795 6.636023178 6.708481377 6.782374392 6.857702222 6.934464869 7.012662331 7.092294609 7.173361703 7.255863613 7.339800339 7.42517188 7.511978237 7.60021941 7.689895399 7.781006204 7.873551824 7.967532261 8.062947513 8.159797581 8.258082465 8.357802164 8.45895668 8.561546011 8.665570158 8.771029121 8.8779229 8.986251495 9.096014905 9.207213131 9.319846173 9.433914031 9.549416705 9.666354194 9.7847265 9.904533621 10.02577556 10.14845231 10.27256388 10.39811026 10.52509146 10.65350748 10.78335831 10.91464396 11.04736442 11.1815197 11.3171098 11.45413471 11.59259444 11.73248898 11.87381834 12.01658251 12.1607815 12.30641531 12.45348393 12.60198737 12.75192562 12.90329869 13.05610657 13.21034928 13.36602679 13.52313912 13.68168627 13.84166824 14.00308502 14.16593661 14.33022302 14.49594425 14.6631003 14.83169115 15.00171683 15.17317732 15.34607263 15.52040275 15.69616769 15.87336744 16.05200201 16.2320714 16.4135756 16.59651462 16.78088845 16.9666971 17.15394056 17.34261884 17.53273194 17.72427985 17.91726258 18.11168012 18.30753248 18.50481966 18.70354165 18.90369846 19.10529008 19.30831652 19.51277777 19.71867384 19.92600473 20.13477043 20.34497095 20.55660628 20.76967643 20.9841814 21.20012118 21.41749578 21.63630519 21.85654942 22.07822846 22.30134232 22.525891 22.75187449 22.9792928 23.20814592"
        emgBrakingTable="241 241 241 241 241 241 241 241 241 241 241 241 241 241 241 241 241 241 241 241 241 241 241 241 241 241 241 241 241 241 241 241 241 241 241 241 241 241 241 241 241 241 241 241 241 241 241 241 241 241 241 241 241 241 241 241 241 241 241 241 241 241 241 241 241 241 241 241 241 241 241 241 241 241 241 241 241 241 241 241 241 241 241 241 241 241 241 241 241 241 241 241 241 241 241 241 241 241 241 241 241 241 241 241 241 241 241 241 241 241 241 241 241 241 241 241 241 241 241 241 241 241 241 241 241 241 241 241 241 241 241 241 241 241 241 241 241 241 241 241 241 241 241 241 241 241 241 241 241 241 241 241 241 241 241 241 241 241 241 241 241">
        <param key="delayInMean" value="64" />
        <param key="delayInStd" value="0" />
        <param key="delayOutMean" value="64" />
        <param key="delayOutStd" value="0" />
        <param key="safetyMargin" value="1000" />
        <param key="positionReportInterval" value="5000" />
        <param key="expLoss" value="0" />
        <param key="expStartBurst" value="0" />
    </vType>
    <vType id="etr1000" vClass="rail" carFollowModel="RailETCS"
        minGap="0" length="202" mass="501000" numSamples="10000"
        maxSpeed="100"
        speedTable="0 0.2777777778 0.5555555556 0.8333333333 1.111111111 1.388888889 1.666666667 1.944444444 2.222222222 2.5 2.777777778 3.055555556 3.333333333 3.611111111 3.888888889 4.166666667 4.444444444 4.722222222 5 5.277777778 5.555555556 5.833333333 6.111111111 6.388888889 6.666666667 6.944444444 7.222222222 7.5 7.777777778 8.055555556 8.333333333 8.611111111 8.888888889 9.166666667 9.444444444 9.722222222 10 10.27777778 10.55555556 10.83333333 11.11111111 11.38888889 11.66666667 11.94444444 12.22222222 12.5 12.77777778 13.05555556 13.33333333 13.61111111 13.88888889 14.16666667 14.44444444 14.72222222 15 15.27777778 15.55555556 15.83333333 16.11111111 16.38888889 16.66666667 16.94444444 17.22222222 17.5 17.77777778 18.05555556 18.33333333 18.61111111 18.88888889 19.16666667 19.44444444 19.72222222 20 20.27777778 20.55555556 20.83333333 21.11111111 21.38888889 21.66666667 21.94444444 22.22222222 22.5 22.77777778 23.05555556 23.33333333 23.61111111 23.88888889 24.16666667 24.44444444 24.72222222 25 25.27777778 25.55555556 25.83333333 26.11111111 26.38888889 26.66666667 26.94444444 27.22222222 27.5 27.77777778 28.05555556 28.33333333 28.61111111 28.88888889 29.16666667 29.44444444 29.72222222 30 30.27777778 30.55555556 30.83333333 31.11111111 31.38888889 31.66666667 31.94444444 32.22222222 32.5 32.77777778 33.05555556 33.33333333 33.61111111 33.88888889 34.16666667 34.44444444 34.72222222 35 35.27777778 35.55555556 35.83333333 36.11111111 36.38888889 36.66666667 36.94444444 37.22222222 37.5 37.77777778 38.05555556 38.33333333 38.61111111 38.88888889 39.16666667 39.44444444 39.72222222 40 40.27777778 40.55555556 40.83333333 41.11111111 41.38888889 41.66666667 41.94444444 42.22222222 42.5 42.77777778 43.05555556 43.33333333 43.61111111 43.88888889 44.16666667 44.44444444 44.72222222 45 45.27777778 45.55555556 45.83333333 46.11111111 46.38888889 46.66666667 46.94444444 47.22222222 47.5 47.77777778 48.05555556 48.33333333 48.61111111 48.88888889 49.16666667 49.44444444 49.72222222 50 50.27777778 50.55555556 50.83333333 51.11111111 51.38888889 51.66666667 51.94444444 52.22222222 52.5 52.77777778 53.05555556 53.33333333 53.61111111 53.88888889 54.16666667 54.44444444 54.72222222 55 55.27777778 55.55555556 55.83333333 56.11111111 56.38888889 56.66666667 56.94444444 57.22222222 57.5 57.77777778 58.05555556 58.33333333 58.61111111 58.88888889 59.16666667 59.44444444 59.72222222 60 60.27777778 60.55555556 60.83333333 61.11111111 61.38888889 61.66666667 61.94444444 62.22222222 62.5 62.77777778 63.05555556 63.33333333 63.61111111 63.88888889 64.16666667 64.44444444 64.72222222 65 65.27777778 65.55555556 65.83333333 66.11111111 66.38888889 66.66666667 66.94444444 67.22222222 67.5 67.77777778 68.05555556 68.33333333 68.61111111 68.88888889 69.16666667 69.44444444 69.72222222 70 70.27777778 70.55555556 70.83333333 71.11111111 71.38888889 71.66666667 71.94444444 72.22222222 72.5 72.77777778 73.05555556 73.33333333 73.61111111 73.88888889 74.16666667 74.44444444 74.72222222 75 75.27777778 75.55555556 75.83333333 76.11111111 76.38888889 76.66666667 76.94444444 77.22222222 77.5 77.77777778 78.05555556 78.33333333 78.61111111 78.88888889 79.16666667 79.44444444 79.72222222 80 80.27777778 80.55555556 80.83333333 81.11111111 81.38888889 81.66666667 81.94444444 82.22222222 82.5 82.77777778 83.05555556 83.33333333 83.61111111 83.88888889 84.16666667 84.44444444 84.72222222 85 85.27777778 85.55555556 85.83333333 86.11111111 86.38888889 86.66666667 86.94444444 87.22222222 87.5 87.77777778 88.05555556 88.33333333 88.61111111 88.88888889 89.16666667 89.44444444 89.72222222 90 90.27777778 90.55555556 90.83333333 91.11111111 91.38888889 91.66666667 91.94444444 92.22222222 92.5 92.77777778 93.05555556 93.33333333 93.61111111 93.88888889 94.16666667 94.44444444 94.72222222 95 95.27777778 95.55555556 95.83333333 96.11111111 96.38888889 96.66666667 96.94444444 97.22222222 97.5 97.77777778 98.05555556 98.33333333 98.61111111 98.88888889 99.16666667 99.44444444 99.72222222"
        tractionTable="370.486 370.08 369.671 369.255 368.83 368.392 367.938 367.466 366.971 366.457 365.926 365.38 364.821 364.253 363.679 363.103 362.531 361.972 361.432 360.914 360.421 359.954 359.509 359.079 358.658 358.242 357.826 357.398 356.933 356.341 355.642 355.038 354.485 353.949 353.42 352.892 352.362 351.824 351.276 350.717 350.155 349.598 349.054 348.532 348.04 347.583 347.152 346.736 346.325 345.91 345.481 345.03 344.549 344.042 343.518 342.984 342.449 341.923 341.416 340.938 340.478 340.014 339.521 338.977 338.366 337.676 336.907 336.079 335.211 334.32 333.426 332.563 331.931 332.738 332.397 331.897 331.342 330.76 330.167 329.572 328.983 328.409 327.852 327.314 326.798 326.303 325.831 325.382 324.952 324.532 324.112 323.68 323.227 322.74 322.21 321.635 321.037 320.442 319.873 319.352 318.9 318.533 318.228 317.93 317.58 317.113 316.445 315.444 313.896 311.64 308.697 305.316 301.994 299.051 296.402 293.951 291.623 289.359 287.139 284.953 282.795 280.658 278.534 276.408 274.258 272.059 269.768 267.318 264.777 262.363 260.218 258.319 256.554 254.853 253.177 251.493 249.767 247.978 246.139 244.271 242.4 240.552 238.744 236.972 235.231 233.515 231.821 230.146 228.498 226.897 225.363 223.912 222.557 221.301 220.117 218.971 217.834 216.678 215.477 214.206 212.867 211.48 210.067 208.65 207.254 205.902 204.606 203.355 202.135 200.931 199.729 198.516 197.293 196.073 194.871 193.698 192.567 191.491 190.471 189.5 188.566 187.658 186.767 185.884 184.999 184.11 183.217 182.32 181.418 180.511 179.597 178.676 177.749 176.815 175.873 174.925 173.97 173.009 172.046 171.085 170.134 169.197 168.281 167.39 166.527 165.689 164.872 164.072 163.287 162.512 161.745 160.984 160.233 159.496 158.777 158.08 157.408 156.765 156.147 155.542 154.939 154.326 153.69 153.018 152.299 151.537 150.752 149.965 149.196 148.466 147.795 147.19 146.636 146.115 145.61 145.104 144.583 144.032 143.449 142.843 142.223 141.601 140.984 140.384 139.809 139.265 138.741 138.225 137.707 137.172 136.608 136.004 135.362 134.7 134.036 133.386 132.769 132.198 131.687 131.228 130.804 130.401 130.004 129.597 129.166 128.695 128.183 127.641 127.08 126.515 125.957 125.42 124.913 124.435 123.983 123.553 123.144 122.754 122.379 122.018 121.668 121.322 120.975 120.62 120.252 119.863 119.45 119.015 118.565 118.105 117.64 117.177 116.719 116.269 115.828 115.394 114.966 114.544 114.126 113.712 113.303 112.903 112.518 112.154 111.816 111.507 111.233 110.989 110.761 110.536 110.3 110.042 109.747 109.401 108.997 108.55 108.075 107.59 107.114 106.666 106.267 105.921 105.622 105.359 105.122 104.899 104.682 104.463 104.238 104.005 103.765 103.516 103.256 102.984 102.697 102.396 102.09 101.79 101.508 101.255 101.04 100.87 100.715 100.511 100.184 99.623 98.609 96.466 88.573 60.818 40.779 17.245 0 0 0 0 0 0 0 0"
        resistanceTable="3.359 3.353 3.347 3.342 3.339 3.337 3.339 3.344 3.353 3.366 3.38 3.394 3.405 3.409 3.402 3.378 3.321 3.232 3.161 3.195 3.372 3.651 3.967 4.285 4.584 4.848 5.065 5.223 5.319 5.364 5.369 5.344 5.298 5.241 5.189 5.163 5.17 5.193 5.206 5.189 5.142 5.087 5.038 5.008 5.005 5.039 5.122 5.267 5.477 5.74 6.04 6.359 6.673 6.949 7.145 7.243 7.251 7.188 7.084 6.968 6.867 6.796 6.763 6.771 6.818 6.901 7.017 7.162 7.326 7.503 7.687 7.875 8.061 8.243 8.416 8.575 8.715 8.827 8.898 8.924 8.909 8.862 8.804 8.766 8.788 8.909 9.129 9.414 9.731 10.051 10.35 10.6 10.778 10.885 10.927 10.904 10.791 10.852 11.119 11.378 11.634 11.893 12.158 12.446 12.479 12.477 12.483 12.494 12.504 12.513 12.513 12.474 13.034 13.284 13.484 13.636 13.733 13.773 13.77 13.739 13.7 13.67 13.666 13.706 13.803 13.957 14.166 14.425 14.736 15.103 15.536 16.048 16.578 17.002 17.263 17.38 17.4 17.369 17.315 17.255 17.207 17.194 17.274 17.813 19.761 19.908 19.877 19.784 19.661 19.523 19.384 19.262 19.206 19.491 20.311 20.718 20.99 21.199 21.364 21.492 21.584 21.639 21.653 21.626 21.57 21.504 21.451 21.438 21.494 21.652 21.936 22.334 22.838 23.463 24.149 24.383 24.635 24.895 25.16 25.429 25.7 25.974 26.246 26.518 26.789 27.06 27.329 27.595 27.912 28.234 28.506 28.736 28.922 29.062 29.163 29.239 29.3 29.358 29.422 29.505 29.622 29.789 30.009 30.276 30.579 30.906 31.244 31.585 31.928 32.269 32.609 32.947 33.282 33.614 33.941 34.261 34.57 34.865 35.143 35.406 35.661 35.917 36.177 36.443 36.715 36.99 37.268 37.55 37.835 38.124 38.42 38.732 38.896 39.07 39.245 39.42 39.593 39.759 39.91 40.163 40.49 40.811 41.128 41.442 41.754 42.063 42.37 42.675 42.976 43.273 43.56 44.05 44.542 45.022 45.498 45.976 46.464 46.811 47.079 47.359 47.645 47.935 48.229 48.524 48.796 49.07 49.343 49.615 49.885 50.151 50.442 50.797 51.145 51.49 51.833 52.174 52.511 52.858 53.245 53.626 54.005 54.38 54.752 55.115 55.537 55.979 56.421 56.863 57.307 57.754 58.204 58.66 59.128 59.499 59.648 59.821 60.002 60.184 60.365 60.538 60.683 61.183 61.68 62.165 62.647 63.128 63.613 64.11 64.422 64.602 64.801 65.008 65.22 65.434 65.669 65.946 66.218 66.489 66.757 67.023 67.286 67.633 68.037 68.469 68.963 69.584 70.313 70.763 70.675 70.435 72.456 72.765 72.686 72.609 73.967 74.18 74.113 74.038 74.094 75.747 75.924 75.904 77.363 78.082 78.032 77.901 77.872 79.096 79.052 78.95 79.093 80.918 81.267 81.177 81.098 82.535 82.949 82.975 82.916 82.833"
        brakingTable="303.88 303.88 303.88 303.88 303.88 303.88 303.88 303.88 303.88 303.88 303.88 303.88 303.88 303.88 303.88 303.88 303.87 303.87 303.87 303.87 303.87 303.86 303.86 303.86 303.86 303.86 303.86 303.86 303.85 303.85 303.85 303.85 303.85 303.85 303.85 303.85 303.85 303.85 303.84 303.84 303.84 303.84 303.84 303.84 303.84 303.83 303.83 303.83 303.83 303.83 303.83 303.82 303.82 303.82 303.82 303.82 303.82 303.82 303.81 303.81 303.81 303.81 303.81 303.81 303.8 303.8 303.8 303.8 303.8 303.8 303.8 303.79 303.79 303.79 303.79 303.79 303.79 303.78 303.78 303.78 303.78 303.78 303.78 303.78 303.77 303.77 303.77 303.77 303.77 303.6 303.31 303.02 302.73 302.43 302.14 301.85 301.55 301.26 300.96 300.66 300.37 300.07 299.76 299.46 299.16 298.85 298.54 298.22 297.9 297.58 297.24 296.89 296.51 294.76 293.77 292.77 291.79 290.81 289.83 288.86 287.91 286.96 286.02 285.1 284.19 283.3 282.45 281.63 280.88 280.19 279.6 279.16 278.99 277.76 276.33 274.89 273.46 272.03 270.6 269.17 267.74 266.32 264.9 263.48 262.07 260.67 259.28 257.91 256.56 255.27 254.25 252.77 251.23 249.7 248.16 246.63 245.09 243.55 242.01 240.47 238.93 237.38 235.84 234.28 232.73 231.15 229.56 227.78 226.53 225.29 224.04 222.8 221.55 220.31 219.06 217.82 216.57 215.33 214.08 212.84 211.6 210.35 209.11 207.86 206.62 205.37 204.12 202.92 201.87 200.82 199.77 198.72 197.67 196.63 195.58 194.54 193.5 192.46 191.43 190.4 189.37 188.35 187.34 186.34 185.36 184.42 183.55 183.03 182.07 181.12 180.16 179.21 178.26 177.31 176.37 175.43 174.49 173.56 172.63 171.71 170.79 169.89 169 168.13 167.29 166.49 165.76 165.2 165.57 165.36 164.93 164.42 163.85 163.25 162.62 161.97 161.32 160.65 159.98 159.3 158.61 157.92 157.23 156.53 155.83 155.12 154.41 153.7 152.99 152.28 150.59 149.48 148.64 147.92 147.27 146.67 146.11 145.57 145.04 144.53 144.03 143.54 143.05 142.57 142.1 141.63 141.17 140.71 140.25 139.8 139.35 138.91 138.21 137.59 137.05 136.54 136.05 135.59 135.14 134.7 134.27 133.84 133.42 133 132.58 132.17 131.76 131.35 130.94 130.54 130.13 129.73 129.33 128.95 128.4 127.89 127.41 126.94 126.49 126.05 125.61 125.18 124.75 124.33 123.9 123.48 123.07 122.65 122.24 121.82 121.41 121 120.59 120.18 119.77 119.36 118.97 118.93 118.77 118.55 118.27 117.97 117.64 117.28 116.91 116.53 116.14 115.74 115.33 114.92 114.5 114.08 113.66 113.23 112.8 112.37 111.94 111.5 111.06 110.51 109.69 109.08 108.57 108.12 107.7 107.32 106.95 106.61 106.27 105.94 105.62 105.3 104.99 104.69 104.39 104.09 103.79 103.5 103.21 102.92"
        emgBrakingTable="303.88 303.88 303.88 303.88 303.88 303.88 303.88 303.88 303.88 303.88 303.88 303.88 303.88 303.88 303.88 303.88 303.88 303.88 303.88 303.88 303.88 303.88 303.88 303.88 303.88 303.88 303.88 303.88 303.88 303.88 303.88 303.88 303.88 303.88 303.88 303.88 303.88 303.88 303.88 303.88 303.88 303.88 303.88 303.88 303.88 303.88 303.88 303.88 303.88 303.88 303.88 303.88 303.88 303.88 303.88 303.88 303.88 303.88 303.88 303.88 303.88 303.88 303.88 303.88 303.88 303.88 303.88 303.88 303.88 303.88 303.88 303.88 303.88 303.88 303.88 303.88 303.88 303.88 303.88 303.88 303.88 303.88 303.88 303.88 303.88 303.88 303.88 303.88 303.88 303.88 303.88 303.88 303.88 303.88 303.88 303.88 303.88 303.88 303.88 303.88 303.88 303.88 303.88 303.88 303.88 303.88 303.88 303.88 303.88 303.88 303.88 303.88 303.88 303.88 303.88 303.88 303.88 303.88 303.88 303.88 303.88 303.88 303.88 303.88 303.88 303.88 303.88 303.88 303.88 303.88 303.88 303.88 303.88 303.88 303.88 303.88 303.88 303.88 303.88 303.88 303.88 303.88 303.88 303.88 303.88 303.88 303.88 303.88 303.88 303.88 303.88 303.88 303.88 303.88 303.88 303.88 303.88 303.88 303.88 303.88 303.88 303.88 303.88 303.88 303.88 303.88 303.88 303.88 303.88 303.88 303.88 303.88 303.88 303.88 303.88 303.88 303.88 303.88 303.88 303.88 303.88 303.88 303.88 303.88 303.88 303.88 303.88 303.88 303.88 303.88 303.88 303.88 303.88 303.88 303.88 303.88 303.88 303.88 303.88 303.88 303.88 303.88 303.88 303.88 303.88 303.88 303.88 303.88 303.88 303.88 303.88 303.88 303.88 303.88 303.88 303.88 303.88 303.88 303.88 303.88 303.88 303.88 303.88 303.88 303.88 303.88 303.88 303.88 303.88 303.88 303.88 303.88 303.88 303.88 303.88 303.88 303.88 303.88 303.88 303.88 303.88 303.88 303.88 303.88 303.88 303.88 303.88 303.88 303.88 303.88 303.88 303.88 303.88 303.88 303.88 303.88 303.88 303.88 303.88 303.88 303.88 303.88 303.88 303.88 303.88 303.88 303.88 303.88 303.88 303.88 303.88 303.88 303.88 303.88 303.88 303.88 303.88 303.88 303.88 303.88 303.88 303.88 303.88 303.88 303.88 303.88 303.88 303.88 303.88 303.88 303.88 303.88 303.88 303.88 303.88 303.88 303.88 303.88 303.88 303.88 303.88 303.88 303.88 303.88 303.88 303.88 303.88 303.88 303.88 303.88 303.88 303.88 303.88 303.88 303.88 303.88 303.88 303.88 303.88 303.88 303.88 303.88 303.88 303.88 303.88 303.88 303.88 303.88 303.88 303.88 303.88 303.88 303.88 303.88 303.88 303.88 303.88 303.88 303.88 303.88 303.88 303.88 303.88 303.88 303.88 303.88 303.88 303.88 303.88 303.88 303.88 303.88 303.88 303.88 303.88 303.88 303.88 303.88 303.88 303.88"
    >
        <param key="delayInMean" value="64" />
        <param key="delayInStd" value="0" />
        <param key="delayOutMean" value="64" />
        <param key="delayOutStd" value="0" />
        <param key="safetyMargin" value="1000" />
        <param key="positionReportInterval" value="5000" />
        <param key="expLoss" value="0" />
        <param key="expStartBurst" value="0" />
    </vType>
</routes>