<?xml version="1.0" encoding="UTF-8"?>
<additional>
  <tlLogic id="3_1+0" programID="0">
    <param key="moving-block" value="true"/>
  </tlLogic>
  <tlLogic id="3_1+1" programID="0">
    <param key="moving-block" value="true"/>
  </tlLogic>
  <tlLogic id="4_1" programID="0">
    <param key="moving-block" value="true"/>
  </tlLogic>
  <tlLogic id="5_1" programID="0">
    <param key="moving-block" value="true"/>
  </tlLogic>
  <tlLogic id="6_1" programID="0">
    <param key="moving-block" value="true"/>
  </tlLogic>
  <tlLogic id="6_2" programID="0">
    <param key="moving-block" value="true"/>
  </tlLogic>
  <tlLogic id="7_2" programID="0">
    <param key="moving-block" value="true"/>
  </tlLogic>
  <tlLogic id="8_2" programID="0">
    <param key="moving-block" value="true"/>
  </tlLogic>
  <tlLogic id="8_3" programID="0">
    <param key="moving-block" value="true"/>
  </tlLogic>
  <tlLogic id="9_3" programID="0">
    <param key="moving-block" value="true"/>
  </tlLogic>
  <tlLogic id="9_4" programID="0">
    <param key="moving-block" value="true"/>
  </tlLogic>
  <tlLogic id="9_5" programID="0">
    <param key="moving-block" value="true"/>
  </tlLogic>
  <tlLogic id="10_5" programID="0">
    <param key="moving-block" value="true"/>
  </tlLogic>
  <tlLogic id="10_6" programID="0">
    <param key="moving-block" value="true"/>
  </tlLogic>
  <tlLogic id="10_7" programID="0">
    <param key="moving-block" value="true"/>
  </tlLogic>
  <tlLogic id="10_8" programID="0">
    <param key="moving-block" value="true"/>
  </tlLogic>
  <tlLogic id="10_9" programID="0">
    <param key="moving-block" value="true"/>
  </tlLogic>
  <tlLogic id="10_10" programID="0">
    <param key="moving-block" value="true"/>
  </tlLogic>
  <tlLogic id="10_11" programID="0">
    <param key="moving-block" value="true"/>
  </tlLogic>
  <tlLogic id="10_12" programID="0">
    <param key="moving-block" value="true"/>
  </tlLogic>
  <tlLogic id="11_12" programID="0">
    <param key="moving-block" value="true"/>
  </tlLogic>
  <tlLogic id="11_13" programID="0">
    <param key="moving-block" value="true"/>
  </tlLogic>
  <tlLogic id="12_13" programID="0">
    <param key="moving-block" value="true"/>
  </tlLogic>
  <tlLogic id="12_14" programID="0">
    <param key="moving-block" value="true"/>
  </tlLogic>
  <tlLogic id="12_15" programID="0">
    <param key="moving-block" value="true"/>
  </tlLogic>
  <tlLogic id="12_16" programID="0">
    <param key="moving-block" value="true"/>
  </tlLogic>
  <tlLogic id="12_17" programID="0">
    <param key="moving-block" value="true"/>
  </tlLogic>
  <tlLogic id="13_17" programID="0">
    <param key="moving-block" value="true"/>
  </tlLogic>
  <tlLogic id="13_18" programID="0">
    <param key="moving-block" value="true"/>
  </tlLogic>
  <tlLogic id="13_19" programID="0">
    <param key="moving-block" value="true"/>
  </tlLogic>
  <tlLogic id="13_20" programID="0">
    <param key="moving-block" value="true"/>
  </tlLogic>
  <tlLogic id="13_21" programID="0">
    <param key="moving-block" value="true"/>
  </tlLogic>
  <tlLogic id="14_21" programID="0">
    <param key="moving-block" value="true"/>
  </tlLogic>
  <tlLogic id="14_22" programID="0">
    <param key="moving-block" value="true"/>
  </tlLogic>
  <tlLogic id="14_23" programID="0">
    <param key="moving-block" value="true"/>
  </tlLogic>
  <tlLogic id="14_24" programID="0">
    <param key="moving-block" value="true"/>
  </tlLogic>
  <tlLogic id="14_25" programID="0">
    <param key="moving-block" value="true"/>
  </tlLogic>
  <tlLogic id="15_25" programID="0">
    <param key="moving-block" value="true"/>
  </tlLogic>
  <tlLogic id="15_26" programID="0">
    <param key="moving-block" value="true"/>
  </tlLogic>
  <tlLogic id="15_27" programID="0">
    <param key="moving-block" value="true"/>
  </tlLogic>
  <tlLogic id="15_28" programID="0">
    <param key="moving-block" value="true"/>
  </tlLogic>
  <tlLogic id="15_29" programID="0">
    <param key="moving-block" value="true"/>
  </tlLogic>
  <tlLogic id="15_30" programID="0">
    <param key="moving-block" value="true"/>
  </tlLogic>
  <tlLogic id="16_30" programID="0">
    <param key="moving-block" value="true"/>
  </tlLogic>
  <tlLogic id="16_31" programID="0">
    <param key="moving-block" value="true"/>
  </tlLogic>
  <tlLogic id="16_32" programID="0">
    <param key="moving-block" value="true"/>
  </tlLogic>
  <tlLogic id="16_33" programID="0">
    <param key="moving-block" value="true"/>
  </tlLogic>
  <tlLogic id="16_34" programID="0">
    <param key="moving-block" value="true"/>
  </tlLogic>
  <tlLogic id="17_34" programID="0">
    <param key="moving-block" value="true"/>
  </tlLogic>
  <tlLogic id="17_35" programID="0">
    <param key="moving-block" value="true"/>
  </tlLogic>
  <tlLogic id="17_36" programID="0">
    <param key="moving-block" value="true"/>
  </tlLogic>
  <tlLogic id="17_37" programID="0">
    <param key="moving-block" value="true"/>
  </tlLogic>
  <tlLogic id="17_38" programID="0">
    <param key="moving-block" value="true"/>
  </tlLogic>
  <tlLogic id="17_39" programID="0">
    <param key="moving-block" value="true"/>
  </tlLogic>
  <tlLogic id="18_39" programID="0">
    <param key="moving-block" value="true"/>
  </tlLogic>
  <tlLogic id="18_40" programID="0">
    <param key="moving-block" value="true"/>
  </tlLogic>
  <tlLogic id="18_41" programID="0">
    <param key="moving-block" value="true"/>
  </tlLogic>
  <tlLogic id="18_42" programID="0">
    <param key="moving-block" value="true"/>
  </tlLogic>
  <tlLogic id="18_43" programID="0">
    <param key="moving-block" value="true"/>
  </tlLogic>
  <tlLogic id="18_44" programID="0">
    <param key="moving-block" value="true"/>
  </tlLogic>
  <tlLogic id="18_45" programID="0">
    <param key="moving-block" value="true"/>
  </tlLogic>
  <tlLogic id="18_46" programID="0">
    <param key="moving-block" value="true"/>
  </tlLogic>
  <tlLogic id="18_47" programID="0">
    <param key="moving-block" value="true"/>
  </tlLogic>
  <tlLogic id="18_48" programID="0">
    <param key="moving-block" value="true"/>
  </tlLogic>
  <tlLogic id="18_49" programID="0">
    <param key="moving-block" value="true"/>
  </tlLogic>
  <tlLogic id="18_50" programID="0">
    <param key="moving-block" value="true"/>
  </tlLogic>
  <tlLogic id="19_50" programID="0">
    <param key="moving-block" value="true"/>
  </tlLogic>
  <tlLogic id="19_51" programID="0">
    <param key="moving-block" value="true"/>
  </tlLogic>
  <tlLogic id="19_52" programID="0">
    <param key="moving-block" value="true"/>
  </tlLogic>
  <tlLogic id="20_52" programID="0">
    <param key="moving-block" value="true"/>
  </tlLogic>
  <tlLogic id="20_54" programID="0">
    <param key="moving-block" value="true"/>
  </tlLogic>
  <tlLogic id="20_55" programID="0">
    <param key="moving-block" value="true"/>
  </tlLogic>
  <tlLogic id="20_56" programID="0">
    <param key="moving-block" value="true"/>
  </tlLogic>
  <tlLogic id="20_57" programID="0">
    <param key="moving-block" value="true"/>
  </tlLogic>
  <tlLogic id="20_58" programID="0">
    <param key="moving-block" value="true"/>
  </tlLogic>
  <tlLogic id="20_59" programID="0">
    <param key="moving-block" value="true"/>
  </tlLogic>
  <tlLogic id="20_60" programID="0">
    <param key="moving-block" value="true"/>
  </tlLogic>
  <tlLogic id="20_61" programID="0">
    <param key="moving-block" value="true"/>
  </tlLogic>
  <tlLogic id="20_62" programID="0">
    <param key="moving-block" value="true"/>
  </tlLogic>
  <tlLogic id="20_63" programID="0">
    <param key="moving-block" value="true"/>
  </tlLogic>
  <tlLogic id="20_64" programID="0">
    <param key="moving-block" value="true"/>
  </tlLogic>
  <tlLogic id="20_65" programID="0">
    <param key="moving-block" value="true"/>
  </tlLogic>
  <tlLogic id="20_66" programID="0">
    <param key="moving-block" value="true"/>
  </tlLogic>
  <tlLogic id="20_67" programID="0">
    <param key="moving-block" value="true"/>
  </tlLogic>
  <tlLogic id="20_68" programID="0">
    <param key="moving-block" value="true"/>
  </tlLogic>
  <tlLogic id="20_69" programID="0">
    <param key="moving-block" value="true"/>
  </tlLogic>
  <tlLogic id="20_70" programID="0">
    <param key="moving-block" value="true"/>
  </tlLogic>
  <tlLogic id="20_71" programID="0">
    <param key="moving-block" value="true"/>
  </tlLogic>
  <tlLogic id="20_72" programID="0">
    <param key="moving-block" value="true"/>
  </tlLogic>
  <tlLogic id="20_73" programID="0">
    <param key="moving-block" value="true"/>
  </tlLogic>
  <tlLogic id="20_74" programID="0">
    <param key="moving-block" value="true"/>
  </tlLogic>
  <tlLogic id="20_75" programID="0">
    <param key="moving-block" value="true"/>
  </tlLogic>
  <tlLogic id="20_76" programID="0">
    <param key="moving-block" value="true"/>
  </tlLogic>
  <tlLogic id="20_77" programID="0">
    <param key="moving-block" value="true"/>
  </tlLogic>
  <tlLogic id="20_78" programID="0">
    <param key="moving-block" value="true"/>
  </tlLogic>
  <tlLogic id="20_79" programID="0">
    <param key="moving-block" value="true"/>
  </tlLogic>
  <tlLogic id="20_80" programID="0">
    <param key="moving-block" value="true"/>
  </tlLogic>
  <tlLogic id="20_81" programID="0">
    <param key="moving-block" value="true"/>
  </tlLogic>
  <tlLogic id="20_82" programID="0">
    <param key="moving-block" value="true"/>
  </tlLogic>
  <tlLogic id="21_82" programID="0">
    <param key="moving-block" value="true"/>
  </tlLogic>
  <tlLogic id="21_83" programID="0">
    <param key="moving-block" value="true"/>
  </tlLogic>
  <tlLogic id="21_84" programID="0">
    <param key="moving-block" value="true"/>
  </tlLogic>
  <tlLogic id="21_85" programID="0">
    <param key="moving-block" value="true"/>
  </tlLogic>
  <tlLogic id="21_86" programID="0">
    <param key="moving-block" value="true"/>
  </tlLogic>
  <tlLogic id="21_87" programID="0">
    <param key="moving-block" value="true"/>
  </tlLogic>
  <tlLogic id="21_88" programID="0">
    <param key="moving-block" value="true"/>
  </tlLogic>
  <tlLogic id="22_88" programID="0">
    <param key="moving-block" value="true"/>
  </tlLogic>
  <tlLogic id="22_89" programID="0">
    <param key="moving-block" value="true"/>
  </tlLogic>
  <tlLogic id="22_90" programID="0">
    <param key="moving-block" value="true"/>
  </tlLogic>
  <tlLogic id="22_91" programID="0">
    <param key="moving-block" value="true"/>
  </tlLogic>
  <tlLogic id="22_92" programID="0">
    <param key="moving-block" value="true"/>
  </tlLogic>
  <tlLogic id="22_93" programID="0">
    <param key="moving-block" value="true"/>
  </tlLogic>
  <tlLogic id="22_94" programID="0">
    <param key="moving-block" value="true"/>
  </tlLogic>
  <tlLogic id="22_95" programID="0">
    <param key="moving-block" value="true"/>
  </tlLogic>
  <tlLogic id="23_95" programID="0">
    <param key="moving-block" value="true"/>
  </tlLogic>
  <tlLogic id="23_96" programID="0">
    <param key="moving-block" value="true"/>
  </tlLogic>
  <tlLogic id="23_97" programID="0">
    <param key="moving-block" value="true"/>
  </tlLogic>
  <tlLogic id="23_98" programID="0">
    <param key="moving-block" value="true"/>
  </tlLogic>
  <tlLogic id="23_99" programID="0">
    <param key="moving-block" value="true"/>
  </tlLogic>
  <tlLogic id="23_100" programID="0">
    <param key="moving-block" value="true"/>
  </tlLogic>
  <tlLogic id="23_101" programID="0">
    <param key="moving-block" value="true"/>
  </tlLogic>
  <tlLogic id="23_102" programID="0">
    <param key="moving-block" value="true"/>
  </tlLogic>
  <tlLogic id="23_103" programID="0">
    <param key="moving-block" value="true"/>
  </tlLogic>
  <tlLogic id="23_104" programID="0">
    <param key="moving-block" value="true"/>
  </tlLogic>
  <tlLogic id="23_105" programID="0">
    <param key="moving-block" value="true"/>
  </tlLogic>
  <tlLogic id="23_106" programID="0">
    <param key="moving-block" value="true"/>
  </tlLogic>
  <tlLogic id="24_106" programID="0">
    <param key="moving-block" value="true"/>
  </tlLogic>
  <tlLogic id="24_107" programID="0">
    <param key="moving-block" value="true"/>
  </tlLogic>
  <tlLogic id="24_108" programID="0">
    <param key="moving-block" value="true"/>
  </tlLogic>
  <tlLogic id="24_109" programID="0">
    <param key="moving-block" value="true"/>
  </tlLogic>
  <tlLogic id="24_110" programID="0">
    <param key="moving-block" value="true"/>
  </tlLogic>
  <tlLogic id="25_110" programID="0">
    <param key="moving-block" value="true"/>
  </tlLogic>
  <tlLogic id="25_111" programID="0">
    <param key="moving-block" value="true"/>
  </tlLogic>
  <tlLogic id="25_112" programID="0">
    <param key="moving-block" value="true"/>
  </tlLogic>
  <tlLogic id="26_112" programID="0">
    <param key="moving-block" value="true"/>
  </tlLogic>
  <tlLogic id="27_112" programID="0">
    <param key="moving-block" value="true"/>
  </tlLogic>
  <tlLogic id="28_112" programID="0">
    <param key="moving-block" value="true"/>
  </tlLogic>
  <tlLogic id="28_113" programID="0">
    <param key="moving-block" value="true"/>
  </tlLogic>
  <tlLogic id="29_113" programID="0">
    <param key="moving-block" value="true"/>
  </tlLogic>
  <tlLogic id="30_113" programID="0">
    <param key="moving-block" value="true"/>
  </tlLogic>
  <tlLogic id="30_114" programID="0">
    <param key="moving-block" value="true"/>
  </tlLogic>
  <tlLogic id="30_115" programID="0">
    <param key="moving-block" value="true"/>
  </tlLogic>
  <tlLogic id="31_115" programID="0">
    <param key="moving-block" value="true"/>
  </tlLogic>
  <tlLogic id="31_116" programID="0">
    <param key="moving-block" value="true"/>
  </tlLogic>
  <tlLogic id="31_117" programID="0">
    <param key="moving-block" value="true"/>
  </tlLogic>
  <tlLogic id="31_118" programID="0">
    <param key="moving-block" value="true"/>
  </tlLogic>
  <tlLogic id="31_119" programID="0">
    <param key="moving-block" value="true"/>
  </tlLogic>
  <tlLogic id="31_120" programID="0">
    <param key="moving-block" value="true"/>
  </tlLogic>
  <tlLogic id="32_120" programID="0">
    <param key="moving-block" value="true"/>
  </tlLogic>
  <tlLogic id="32_121" programID="0">
    <param key="moving-block" value="true"/>
  </tlLogic>
  <tlLogic id="32_122" programID="0">
    <param key="moving-block" value="true"/>
  </tlLogic>
  <tlLogic id="33_122" programID="0">
    <param key="moving-block" value="true"/>
  </tlLogic>
  <tlLogic id="34_122" programID="0">
    <param key="moving-block" value="true"/>
  </tlLogic>
  <tlLogic id="35_122+0" programID="0">
    <param key="moving-block" value="true"/>
  </tlLogic>
  <tlLogic id="35_122+1" programID="0">
    <param key="moving-block" value="true"/>
  </tlLogic>
  <tlLogic id="36_122+0" programID="0">
    <param key="moving-block" value="true"/>
  </tlLogic>
  <tlLogic id="36_122+1" programID="0">
    <param key="moving-block" value="true"/>
  </tlLogic>
  <tlLogic id="37_122+0" programID="0">
    <param key="moving-block" value="true"/>
  </tlLogic>
  <tlLogic id="37_122+1" programID="0">
    <param key="moving-block" value="true"/>
  </tlLogic>
  <tlLogic id="38_122" programID="0">
    <param key="moving-block" value="true"/>
  </tlLogic>
  <tlLogic id="38_123" programID="0">
    <param key="moving-block" value="true"/>
  </tlLogic>
  <tlLogic id="38_124" programID="0">
    <param key="moving-block" value="true"/>
  </tlLogic>
  <tlLogic id="38_125" programID="0">
    <param key="moving-block" value="true"/>
  </tlLogic>
  <tlLogic id="38_126" programID="0">
    <param key="moving-block" value="true"/>
  </tlLogic>
  <tlLogic id="38_127" programID="0">
    <param key="moving-block" value="true"/>
  </tlLogic>
  <tlLogic id="38_128" programID="0">
    <param key="moving-block" value="true"/>
  </tlLogic>
  <tlLogic id="39_128" programID="0">
    <param key="moving-block" value="true"/>
  </tlLogic>
  <tlLogic id="40_128" programID="0">
    <param key="moving-block" value="true"/>
  </tlLogic>
  <tlLogic id="41_128" programID="0">
    <param key="moving-block" value="true"/>
  </tlLogic>
  <tlLogic id="41_129" programID="0">
    <param key="moving-block" value="true"/>
  </tlLogic>
  <tlLogic id="42_129" programID="0">
    <param key="moving-block" value="true"/>
  </tlLogic>
  <tlLogic id="42_130" programID="0">
    <param key="moving-block" value="true"/>
  </tlLogic>
  <tlLogic id="42_131" programID="0">
    <param key="moving-block" value="true"/>
  </tlLogic>
  <tlLogic id="42_132" programID="0">
    <param key="moving-block" value="true"/>
  </tlLogic>
  <tlLogic id="42_133" programID="0">
    <param key="moving-block" value="true"/>
  </tlLogic>
  <tlLogic id="42_134" programID="0">
    <param key="moving-block" value="true"/>
  </tlLogic>
  <tlLogic id="43_134" programID="0">
    <param key="moving-block" value="true"/>
  </tlLogic>
  <tlLogic id="43_135" programID="0">
    <param key="moving-block" value="true"/>
  </tlLogic>
  <tlLogic id="43_136" programID="0">
    <param key="moving-block" value="true"/>
  </tlLogic>
  <tlLogic id="43_137" programID="0">
    <param key="moving-block" value="true"/>
  </tlLogic>
  <tlLogic id="43_138" programID="0">
    <param key="moving-block" value="true"/>
  </tlLogic>
  <tlLogic id="44_138" programID="0">
    <param key="moving-block" value="true"/>
  </tlLogic>
  <tlLogic id="44_139" programID="0">
    <param key="moving-block" value="true"/>
  </tlLogic>
  <tlLogic id="44_140" programID="0">
    <param key="moving-block" value="true"/>
  </tlLogic>
  <tlLogic id="44_141" programID="0">
    <param key="moving-block" value="true"/>
  </tlLogic>
  <tlLogic id="44_142" programID="0">
    <param key="moving-block" value="true"/>
  </tlLogic>
  <tlLogic id="44_143" programID="0">
    <param key="moving-block" value="true"/>
  </tlLogic>
  <tlLogic id="44_144" programID="0">
    <param key="moving-block" value="true"/>
  </tlLogic>
  <tlLogic id="44_145" programID="0">
    <param key="moving-block" value="true"/>
  </tlLogic>
  <tlLogic id="44_146" programID="0">
    <param key="moving-block" value="true"/>
  </tlLogic>
  <tlLogic id="44_147" programID="0">
    <param key="moving-block" value="true"/>
  </tlLogic>
  <tlLogic id="44_148" programID="0">
    <param key="moving-block" value="true"/>
  </tlLogic>
  <tlLogic id="45_148" programID="0">
    <param key="moving-block" value="true"/>
  </tlLogic>
  <tlLogic id="46_148" programID="0">
    <param key="moving-block" value="true"/>
  </tlLogic>
  <tlLogic id="47_148" programID="0">
    <param key="moving-block" value="true"/>
  </tlLogic>
  <tlLogic id="48_148" programID="0">
    <param key="moving-block" value="true"/>
  </tlLogic>
  <tlLogic id="48_149" programID="0">
    <param key="moving-block" value="true"/>
  </tlLogic>
  <tlLogic id="48_150" programID="0">
    <param key="moving-block" value="true"/>
  </tlLogic>
  <tlLogic id="49_150" programID="0">
    <param key="moving-block" value="true"/>
  </tlLogic>
  <tlLogic id="50_150" programID="0">
    <param key="moving-block" value="true"/>
  </tlLogic>
  <tlLogic id="50_151" programID="0">
    <param key="moving-block" value="true"/>
  </tlLogic>
  <tlLogic id="50_152" programID="0">
    <param key="moving-block" value="true"/>
  </tlLogic>
  <tlLogic id="50_153" programID="0">
    <param key="moving-block" value="true"/>
  </tlLogic>
  <tlLogic id="50_154" programID="0">
    <param key="moving-block" value="true"/>
  </tlLogic>
  <tlLogic id="50_155" programID="0">
    <param key="moving-block" value="true"/>
  </tlLogic>
  <tlLogic id="51_155" programID="0">
    <param key="moving-block" value="true"/>
  </tlLogic>
  <tlLogic id="51_156" programID="0">
    <param key="moving-block" value="true"/>
  </tlLogic>
  <tlLogic id="51_157" programID="0">
    <param key="moving-block" value="true"/>
  </tlLogic>
  <tlLogic id="51_158" programID="0">
    <param key="moving-block" value="true"/>
  </tlLogic>
  <tlLogic id="51_159" programID="0">
    <param key="moving-block" value="true"/>
  </tlLogic>
  <tlLogic id="51_160" programID="0">
    <param key="moving-block" value="true"/>
  </tlLogic>
  <tlLogic id="52_160" programID="0">
    <param key="moving-block" value="true"/>
  </tlLogic>
  <tlLogic id="53_160+0" programID="0">
    <param key="moving-block" value="true"/>
  </tlLogic>
  <tlLogic id="53_160+1" programID="0">
    <param key="moving-block" value="true"/>
  </tlLogic>
  <tlLogic id="54_160+0" programID="0">
    <param key="moving-block" value="true"/>
  </tlLogic>
  <tlLogic id="54_160+1" programID="0">
    <param key="moving-block" value="true"/>
  </tlLogic>
  <tlLogic id="55_160+0" programID="0">
    <param key="moving-block" value="true"/>
  </tlLogic>
  <tlLogic id="55_160+1" programID="0">
    <param key="moving-block" value="true"/>
  </tlLogic>
  <tlLogic id="56_160" programID="0">
    <param key="moving-block" value="true"/>
  </tlLogic>
  <tlLogic id="56_161" programID="0">
    <param key="moving-block" value="true"/>
  </tlLogic>
  <tlLogic id="56_162" programID="0">
    <param key="moving-block" value="true"/>
  </tlLogic>
  <tlLogic id="57_162" programID="0">
    <param key="moving-block" value="true"/>
  </tlLogic>
  <tlLogic id="57_163" programID="0">
    <param key="moving-block" value="true"/>
  </tlLogic>
  <tlLogic id="58_163" programID="0">
    <param key="moving-block" value="true"/>
  </tlLogic>
  <tlLogic id="58_164" programID="0">
    <param key="moving-block" value="true"/>
  </tlLogic>
  <tlLogic id="59_164" programID="0">
    <param key="moving-block" value="true"/>
  </tlLogic>
  <tlLogic id="59_165" programID="0">
    <param key="moving-block" value="true"/>
  </tlLogic>
  <tlLogic id="60_165" programID="0">
    <param key="moving-block" value="true"/>
  </tlLogic>
  <tlLogic id="60_166" programID="0">
    <param key="moving-block" value="true"/>
  </tlLogic>
  <tlLogic id="60_167" programID="0">
    <param key="moving-block" value="true"/>
  </tlLogic>
  <tlLogic id="60_168" programID="0">
    <param key="moving-block" value="true"/>
  </tlLogic>
  <tlLogic id="60_169" programID="0">
    <param key="moving-block" value="true"/>
  </tlLogic>
  <tlLogic id="60_170" programID="0">
    <param key="moving-block" value="true"/>
  </tlLogic>
  <tlLogic id="60_171" programID="0">
    <param key="moving-block" value="true"/>
  </tlLogic>
  <tlLogic id="60_172" programID="0">
    <param key="moving-block" value="true"/>
  </tlLogic>
  <tlLogic id="60_173" programID="0">
    <param key="moving-block" value="true"/>
  </tlLogic>
  <tlLogic id="60_174" programID="0">
    <param key="moving-block" value="true"/>
  </tlLogic>
  <tlLogic id="60_175" programID="0">
    <param key="moving-block" value="true"/>
  </tlLogic>
  <tlLogic id="61_175" programID="0">
    <param key="moving-block" value="true"/>
  </tlLogic>
  <tlLogic id="61_176" programID="0">
    <param key="moving-block" value="true"/>
  </tlLogic>
  <tlLogic id="61_177" programID="0">
    <param key="moving-block" value="true"/>
  </tlLogic>
  <tlLogic id="61_178" programID="0">
    <param key="moving-block" value="true"/>
  </tlLogic>
  <tlLogic id="61_179" programID="0">
    <param key="moving-block" value="true"/>
  </tlLogic>
  <tlLogic id="62_179" programID="0">
    <param key="moving-block" value="true"/>
  </tlLogic>
  <tlLogic id="62_180" programID="0">
    <param key="moving-block" value="true"/>
  </tlLogic>
  <tlLogic id="62_181" programID="0">
    <param key="moving-block" value="true"/>
  </tlLogic>
  <tlLogic id="63_181" programID="0">
    <param key="moving-block" value="true"/>
  </tlLogic>
  <tlLogic id="64_181" programID="0">
    <param key="moving-block" value="true"/>
  </tlLogic>
  <tlLogic id="64_182" programID="0">
    <param key="moving-block" value="true"/>
  </tlLogic>
  <tlLogic id="64_183" programID="0">
    <param key="moving-block" value="true"/>
  </tlLogic>
  <tlLogic id="64_184" programID="0">
    <param key="moving-block" value="true"/>
  </tlLogic>
  <tlLogic id="64_185" programID="0">
    <param key="moving-block" value="true"/>
  </tlLogic>
  <tlLogic id="64_186" programID="0">
    <param key="moving-block" value="true"/>
  </tlLogic>
  <tlLogic id="65_186" programID="0">
    <param key="moving-block" value="true"/>
  </tlLogic>
  <tlLogic id="65_187" programID="0">
    <param key="moving-block" value="true"/>
  </tlLogic>
  <tlLogic id="65_188" programID="0">
    <param key="moving-block" value="true"/>
  </tlLogic>
  <tlLogic id="66_188" programID="0">
    <param key="moving-block" value="true"/>
  </tlLogic>
  <tlLogic id="66_189" programID="0">
    <param key="moving-block" value="true"/>
  </tlLogic>
  <tlLogic id="66_190" programID="0">
    <param key="moving-block" value="true"/>
  </tlLogic>
  <tlLogic id="66_191" programID="0">
    <param key="moving-block" value="true"/>
  </tlLogic>
  <tlLogic id="66_192" programID="0">
    <param key="moving-block" value="true"/>
  </tlLogic>
  <tlLogic id="67_192" programID="0">
    <param key="moving-block" value="true"/>
  </tlLogic>
  <tlLogic id="67_193" programID="0">
    <param key="moving-block" value="true"/>
  </tlLogic>
  <tlLogic id="67_194" programID="0">
    <param key="moving-block" value="true"/>
  </tlLogic>
  <tlLogic id="67_195" programID="0">
    <param key="moving-block" value="true"/>
  </tlLogic>
  <tlLogic id="67_196" programID="0">
    <param key="moving-block" value="true"/>
  </tlLogic>
  <tlLogic id="67_197" programID="0">
    <param key="moving-block" value="true"/>
  </tlLogic>
  <tlLogic id="67_198" programID="0">
    <param key="moving-block" value="true"/>
  </tlLogic>
  <tlLogic id="67_199" programID="0">
    <param key="moving-block" value="true"/>
  </tlLogic>
  <tlLogic id="67_200" programID="0">
    <param key="moving-block" value="true"/>
  </tlLogic>
  <tlLogic id="67_201" programID="0">
    <param key="moving-block" value="true"/>
  </tlLogic>
  <tlLogic id="68_201" programID="0">
    <param key="moving-block" value="true"/>
  </tlLogic>
  <tlLogic id="68_202" programID="0">
    <param key="moving-block" value="true"/>
  </tlLogic>
  <tlLogic id="68_203" programID="0">
    <param key="moving-block" value="true"/>
  </tlLogic>
  <tlLogic id="68_204" programID="0">
    <param key="moving-block" value="true"/>
  </tlLogic>
  <tlLogic id="68_205" programID="0">
    <param key="moving-block" value="true"/>
  </tlLogic>
  <tlLogic id="68_206" programID="0">
    <param key="moving-block" value="true"/>
  </tlLogic>
  <tlLogic id="68_207" programID="0">
    <param key="moving-block" value="true"/>
  </tlLogic>
  <tlLogic id="68_208" programID="0">
    <param key="moving-block" value="true"/>
  </tlLogic>
  <tlLogic id="68_209" programID="0">
    <param key="moving-block" value="true"/>
  </tlLogic>
  <tlLogic id="69_209" programID="0">
    <param key="moving-block" value="true"/>
  </tlLogic>
  <tlLogic id="69_210" programID="0">
    <param key="moving-block" value="true"/>
  </tlLogic>
  <tlLogic id="69_211" programID="0">
    <param key="moving-block" value="true"/>
  </tlLogic>
  <tlLogic id="69_212" programID="0">
    <param key="moving-block" value="true"/>
  </tlLogic>
  <tlLogic id="69_213" programID="0">
    <param key="moving-block" value="true"/>
  </tlLogic>
  <tlLogic id="70_213" programID="0">
    <param key="moving-block" value="true"/>
  </tlLogic>
  <tlLogic id="70_214" programID="0">
    <param key="moving-block" value="true"/>
  </tlLogic>
  <tlLogic id="70_215" programID="0">
    <param key="moving-block" value="true"/>
  </tlLogic>
  <tlLogic id="70_216" programID="0">
    <param key="moving-block" value="true"/>
  </tlLogic>
  <tlLogic id="70_217" programID="0">
    <param key="moving-block" value="true"/>
  </tlLogic>
  <tlLogic id="70_218" programID="0">
    <param key="moving-block" value="true"/>
  </tlLogic>
  <tlLogic id="70_219" programID="0">
    <param key="moving-block" value="true"/>
  </tlLogic>
  <tlLogic id="70_220" programID="0">
    <param key="moving-block" value="true"/>
  </tlLogic>
  <tlLogic id="70_221" programID="0">
    <param key="moving-block" value="true"/>
  </tlLogic>
  <tlLogic id="70_222" programID="0">
    <param key="moving-block" value="true"/>
  </tlLogic>
  <tlLogic id="70_223" programID="0">
    <param key="moving-block" value="true"/>
  </tlLogic>
  <tlLogic id="70_224" programID="0">
    <param key="moving-block" value="true"/>
  </tlLogic>
  <tlLogic id="70_225" programID="0">
    <param key="moving-block" value="true"/>
  </tlLogic>
  <tlLogic id="71_225" programID="0">
    <param key="moving-block" value="true"/>
  </tlLogic>
  <tlLogic id="72_225+0" programID="0">
    <param key="moving-block" value="true"/>
  </tlLogic>
  <tlLogic id="72_225+1" programID="0">
    <param key="moving-block" value="true"/>
  </tlLogic>
  <tlLogic id="72_226+0" programID="0">
    <param key="moving-block" value="true"/>
  </tlLogic>
  <tlLogic id="72_226+1" programID="0">
    <param key="moving-block" value="true"/>
  </tlLogic>
  <tlLogic id="73_226+0" programID="0">
    <param key="moving-block" value="true"/>
  </tlLogic>
  <tlLogic id="73_226+1" programID="0">
    <param key="moving-block" value="true"/>
  </tlLogic>
  <tlLogic id="74_226+0" programID="0">
    <param key="moving-block" value="true"/>
  </tlLogic>
  <tlLogic id="74_226+1" programID="0">
    <param key="moving-block" value="true"/>
  </tlLogic>
  <tlLogic id="75_226" programID="0">
    <param key="moving-block" value="true"/>
  </tlLogic>
  <tlLogic id="75_227" programID="0">
    <param key="moving-block" value="true"/>
  </tlLogic>
  <tlLogic id="75_228" programID="0">
    <param key="moving-block" value="true"/>
  </tlLogic>
  <tlLogic id="75_229" programID="0">
    <param key="moving-block" value="true"/>
  </tlLogic>
  <tlLogic id="75_230" programID="0">
    <param key="moving-block" value="true"/>
  </tlLogic>
  <tlLogic id="75_231" programID="0">
    <param key="moving-block" value="true"/>
  </tlLogic>