<?xml version="1.0" encoding="UTF-8"?>

<!-- generated on 2026-02-20T14:22:05.331039+01:00 by Eclipse SUMO netconvert 1.25.0
<netconvertConfiguration xmlns:xsi="http://www.w3.org/2001/XMLSchema-instance" xsi:noNamespaceSchemaLocation="http://sumo.dlr.de/xsd/netconvertConfiguration.xsd">

    <input>
        <node-files value="/Users/edo/unifi/opentrack/out/lineData/default_stpnFXB/sumo.nodes.xml"/>
        <edge-files value="/Users/edo/unifi/opentrack/out/lineData/default_stpnFXB/sumo.edges.xml"/>
    </input>

    <output>
        <output-file value="/Users/edo/unifi/opentrack/out/lineData/default_stpnFXB/sumo.net.xml"/>
    </output>

    <junctions>
        <junctions.limit-turn-speed value="-1"/>
    </junctions>

</netconvertConfiguration>
-->

<net version="1.20" junctionCornerDetail="5" xmlns:xsi="http://www.w3.org/2001/XMLSchema-instance" xsi:noNamespaceSchemaLocation="http://sumo.dlr.de/xsd/net_file.xsd">

    <location netOffset="0.00,0.00" convBoundary="0.00,0.00,250000.00,100.00" origBoundary="0.00,0.00,250000.00,100.00" projParameter="!"/>

    <edge id=":2_2+0_0" function="internal">
        <lane id=":2_2+0_0_0" index="0" allow="rail" speed="8.33" length="0.10" shape="1.00,-1.60 1.00,-1.60"/>
    </edge>
    <edge id=":2_2+1_0" function="internal">
        <lane id=":2_2+1_0_0" index="0" allow="rail" speed="8.33" length="0.10" shape="1.00,98.40 1.00,98.40"/>
    </edge>
    <edge id=":3_2+0_0" function="internal">
        <lane id=":3_2+0_0_0" index="0" allow="rail" speed="45.83" length="0.10" shape="250.00,-1.60 250.00,-1.60"/>
    </edge>
    <edge id=":3_2+1_0" function="internal">
        <lane id=":3_2+1_0_0" index="0" allow="rail" speed="45.83" length="1.78" shape="248.02,98.40 248.48,98.34 248.87,98.18 249.20,97.90 249.45,97.52"/>
    </edge>
    <edge id=":4_2_0" function="internal">
        <lane id=":4_2_0_0" index="0" allow="rail" speed="83.33" length="6.58" shape="294.92,-1.60 301.50,-1.60"/>
    </edge>
    <edge id=":4_2_1" function="internal">
        <lane id=":4_2_1_0" index="0" allow="rail" speed="83.33" length="5.95" shape="297.18,2.06 298.14,0.46 299.18,-0.69 300.30,-1.37 301.50,-1.60"/>
    </edge>
    <edge id=":5_2_0" function="internal">
        <lane id=":5_2_0_0" index="0" allow="rail" speed="83.33" length="0.10" shape="1000.00,-1.60 1000.00,-1.60"/>
    </edge>
    <edge id=":6_2_0" function="internal">
        <lane id=":6_2_0_0" index="0" allow="rail" speed="83.33" length="6.58" shape="249698.50,-1.60 249705.08,-1.60"/>
    </edge>
    <edge id=":6_2_1" function="internal">
        <lane id=":6_2_1_0" index="0" allow="rail" speed="83.33" length="5.95" shape="249698.50,-1.60 249699.70,-1.37 249700.82,-0.69 249701.86,0.46 249702.82,2.06"/>
    </edge>
    <edge id=":7_2+0_0" function="internal">
        <lane id=":7_2+0_0_0" index="0" allow="rail" speed="45.83" length="0.10" shape="249750.00,-1.60 249750.00,-1.60"/>
    </edge>
    <edge id=":7_2+1_0" function="internal">
        <lane id=":7_2+1_0_0" index="0" allow="rail" speed="45.83" length="1.78" shape="249750.55,97.52 249750.80,97.90 249751.13,98.18 249751.52,98.34 249751.98,98.40"/>
    </edge>

    <edge id="0" from="0_0+0" to="2_2+0" priority="-1" length="1.00">
        <lane id="0_0" index="0" allow="rail" speed="8.33" length="1.00" shape="0.00,-1.60 1.00,-1.60"/>
        <param key="block-length" value="1800"/>
    </edge>
    <edge id="1" from="0_0+1" to="2_2+1" priority="-1" length="1.00">
        <lane id="1_0" index="0" allow="rail" speed="8.33" length="1.00" shape="0.00,98.40 1.00,98.40"/>
        <param key="block-length" value="1800"/>
    </edge>
    <edge id="10" from="7_2+0" to="8_2+0" priority="-1" length="250.00">
        <lane id="10_0" index="0" allow="rail" speed="8.33" length="250.00" shape="249750.00,-1.60 250000.00,-1.60"/>
        <param key="block-length" value="1800"/>
    </edge>
    <edge id="11" from="7_2+1" to="8_2+1" priority="-1" length="250.00">
        <lane id="11_0" index="0" allow="rail" speed="8.33" length="250.00" shape="249751.98,98.40 250000.00,98.40"/>
        <param key="block-length" value="1800"/>
    </edge>
    <edge id="2" from="2_2+0" to="3_2+0" priority="-1" length="249.00">
        <lane id="2_0" index="0" allow="rail" speed="8.33" length="249.00" shape="1.00,-1.60 250.00,-1.60"/>
        <param key="block-length" value="1800"/>
    </edge>
    <edge id="3" from="2_2+1" to="3_2+1" priority="-1" length="249.00">
        <lane id="3_0" index="0" allow="rail" speed="8.33" length="249.00" shape="1.00,98.40 248.02,98.40"/>
        <param key="block-length" value="1800"/>
    </edge>
    <edge id="4" from="3_2+0" to="4_2" priority="-1" length="50.00">
        <lane id="4_0" index="0" allow="rail" speed="83.33" length="50.00" shape="250.00,-1.60 294.92,-1.60"/>
        <param key="block-length" value="1800"/>
    </edge>
    <edge id="5" from="3_2+1" to="4_2" priority="-1" length="50.00">
        <lane id="5_0" index="0" allow="rail" speed="83.33" length="50.00" shape="249.45,97.52 297.18,2.06"/>
        <param key="block-length" value="1800"/>
    </edge>
    <edge id="6" from="4_2" to="5_2" priority="-1" length="700.00">
        <lane id="6_0" index="0" allow="rail" speed="83.33" length="700.00" shape="301.50,-1.60 1000.00,-1.60"/>
        <param key="block-length" value="1800"/>
    </edge>
    <edge id="7" from="5_2" to="6_2" priority="-1" length="248700.00">
        <lane id="7_0" index="0" allow="rail" speed="83.33" length="248700.00" shape="1000.00,-1.60 249698.50,-1.60"/>
        <param key="block-length" value="1800"/>
    </edge>
    <edge id="8" from="6_2" to="7_2+0" priority="-1" length="50.00">
        <lane id="8_0" index="0" allow="rail" speed="83.33" length="50.00" shape="249705.08,-1.60 249750.00,-1.60"/>
        <param key="block-length" value="1800"/>
    </edge>
    <edge id="9" from="6_2" to="7_2+1" priority="-1" length="50.00">
        <lane id="9_0" index="0" allow="rail" speed="83.33" length="50.00" shape="249702.82,2.06 249750.55,97.52"/>
        <param key="block-length" value="1800"/>
    </edge>

    <junction id="0_0+0" type="dead_end" x="0.00" y="0.00" incLanes="" intLanes="" shape="0.00,0.00 0.00,-3.20"/>
    <junction id="0_0+1" type="dead_end" x="0.00" y="100.00" incLanes="" intLanes="" shape="0.00,100.00 0.00,96.80"/>
    <junction id="2_2+0" type="rail_signal" x="1.00" y="0.00" incLanes="0_0" intLanes=":2_2+0_0_0" shape="1.00,0.00 1.00,-3.20 1.00,0.00">
        <request index="0" response="0" foes="0" cont="0"/>
    </junction>
    <junction id="2_2+1" type="rail_signal" x="1.00" y="100.00" incLanes="1_0" intLanes=":2_2+1_0_0" shape="1.00,100.00 1.00,96.80 1.00,100.00">
        <request index="0" response="0" foes="0" cont="0"/>
    </junction>
    <junction id="3_2+0" type="rail_signal" x="250.00" y="0.00" incLanes="2_0" intLanes=":3_2+0_0_0" shape="250.00,0.00 250.00,-3.20 250.00,0.00">
        <request index="0" response="0" foes="0" cont="0"/>
    </junction>
    <junction id="3_2+1" type="rail_signal" x="250.00" y="100.00" incLanes="3_0" intLanes=":3_2+1_0_0" shape="250.88,98.23 248.02,96.80 248.02,100.00 249.22,99.80 249.73,99.56 250.17,99.21 250.56,98.77">
        <request index="0" response="0" foes="0" cont="0"/>
    </junction>
    <junction id="4_2" type="rail_signal" x="300.00" y="0.00" incLanes="4_0 5_0" intLanes=":4_2_0_0 :4_2_1_0" shape="301.50,0.00 301.50,-3.20 294.92,-3.20 294.92,0.00 295.68,0.15 295.88,0.34 295.96,0.60 295.91,0.93 295.75,1.34 298.61,2.77 299.55,1.23 300.03,0.69 300.51,0.31 301.00,0.08">
        <request index="0" response="00" foes="10" cont="0"/>
        <request index="1" response="01" foes="01" cont="0"/>
    </junction>
    <junction id="5_2" type="rail_signal" x="1000.00" y="0.00" incLanes="6_0" intLanes=":5_2_0_0" shape="1000.00,0.00 1000.00,-3.20 1000.00,0.00">
        <request index="0" response="0" foes="0" cont="0"/>
    </junction>
    <junction id="6_2" type="rail_signal" x="249700.00" y="0.00" incLanes="7_0" intLanes=":6_2_0_0 :6_2_1_0" shape="249701.39,2.77 249704.25,1.34 249704.04,0.60 249704.12,0.34 249704.32,0.15 249704.64,0.04 249705.08,0.00 249705.08,-3.20 249698.50,-3.20 249698.50,0.00 249699.49,0.31 249699.97,0.69 249700.45,1.23 249700.92,1.93">
        <request index="0" response="00" foes="00" cont="0"/>
        <request index="1" response="00" foes="00" cont="0"/>
    </junction>
    <junction id="7_2+0" type="rail_signal" x="249750.00" y="0.00" incLanes="8_0" intLanes=":7_2+0_0_0" shape="249750.00,0.00 249750.00,-3.20 249750.00,0.00">
        <request index="0" response="0" foes="0" cont="0"/>
    </junction>
    <junction id="7_2+1" type="rail_signal" x="249750.00" y="100.00" incLanes="9_0" intLanes=":7_2+1_0_0" shape="249751.98,100.00 249751.98,96.80 249749.12,98.23 249749.83,99.21 249750.27,99.56 249750.78,99.80 249751.35,99.95">
        <request index="0" response="0" foes="0" cont="0"/>
    </junction>
    <junction id="8_2+0" type="dead_end" x="250000.00" y="0.00" incLanes="10_0" intLanes="" shape="250000.00,-3.20 250000.00,0.00"/>
    <junction id="8_2+1" type="dead_end" x="250000.00" y="100.00" incLanes="11_0" intLanes="" shape="250000.00,96.80 250000.00,100.00"/>

    <connection from="0" to="2" fromLane="0" toLane="0" via=":2_2+0_0_0" tl="2_2+0" linkIndex="0" dir="s" state="O"/>
    <connection from="1" to="3" fromLane="0" toLane="0" via=":2_2+1_0_0" tl="2_2+1" linkIndex="0" dir="s" state="O"/>
    <connection from="2" to="4" fromLane="0" toLane="0" via=":3_2+0_0_0" tl="3_2+0" linkIndex="0" dir="s" state="O"/>
    <connection from="3" to="5" fromLane="0" toLane="0" via=":3_2+1_0_0" tl="3_2+1" linkIndex="0" dir="r" state="O"/>
    <connection from="4" to="6" fromLane="0" toLane="0" via=":4_2_0_0" tl="4_2" linkIndex="0" dir="s" state="O"/>
    <connection from="5" to="6" fromLane="0" toLane="0" via=":4_2_1_0" tl="4_2" linkIndex="1" dir="l" state="o"/>
    <connection from="6" to="7" fromLane="0" toLane="0" via=":5_2_0_0" tl="5_2" linkIndex="0" dir="s" state="O"/>
    <connection from="7" to="8" fromLane="0" toLane="0" via=":6_2_0_0" tl="6_2" linkIndex="0" dir="s" state="O"/>
    <connection from="7" to="9" fromLane="0" toLane="0" via=":6_2_1_0" tl="6_2" linkIndex="1" dir="l" state="O"/>
    <connection from="8" to="10" fromLane="0" toLane="0" via=":7_2+0_0_0" tl="7_2+0" linkIndex="0" dir="s" state="O"/>
    <connection from="9" to="11" fromLane="0" toLane="0" via=":7_2+1_0_0" tl="7_2+1" linkIndex="0" dir="r" state="O"/>

    <connection from=":2_2+0_0" to="2" fromLane="0" toLane="0" dir="s" state="M"/>
    <connection from=":2_2+1_0" to="3" fromLane="0" toLane="0" dir="s" state="M"/>
    <connection from=":3_2+0_0" to="4" fromLane="0" toLane="0" dir="s" state="M"/>
    <connection from=":3_2+1_0" to="5" fromLane="0" toLane="0" dir="r" state="M"/>
    <connection from=":4_2_0" to="6" fromLane="0" toLane="0" dir="s" state="M"/>
    <connection from=":4_2_1" to="6" fromLane="0" toLane="0" dir="l" state="M"/>
    <connection from=":5_2_0" to="7" fromLane="0" toLane="0" dir="s" state="M"/>
    <connection from=":6_2_0" to="8" fromLane="0" toLane="0" dir="s" state="M"/>
    <connection from=":6_2_1" to="9" fromLane="0" toLane="0" dir="l" state="M"/>
    <connection from=":7_2+0_0" to="10" fromLane="0" toLane="0" dir="s" state="M"/>
    <connection from=":7_2+1_0" to="11" fromLane="0" toLane="0" dir="r" state="M"/>

</net>
